                                  MODFLOW-2005     
      U.S. GEOLOGICAL SURVEY MODULAR FINITE-DIFFERENCE GROUND-WATER FLOW MODEL
                            VERSION 1.12.00 2/3/2017

 LIST FILE: static_ensemble_1133111.list
                         UNIT    2

 OPENING static_ensemble_1133111.dis
 FILE TYPE:DIS   UNIT   11   STATUS:OLD    
 FORMAT:FORMATTED              ACCESS:SEQUENTIAL          

 OPENING static_ensemble_1133111.bas
 FILE TYPE:BAS6   UNIT   13   STATUS:OLD    
 FORMAT:FORMATTED              ACCESS:SEQUENTIAL          

 OPENING static_ensemble_1133111.lpf
 FILE TYPE:LPF   UNIT   15   STATUS:OLD    
 FORMAT:FORMATTED              ACCESS:SEQUENTIAL          

 OPENING static_ensemble_1133111.evt
 FILE TYPE:EVT   UNIT   22   STATUS:OLD    
 FORMAT:FORMATTED              ACCESS:SEQUENTIAL          

 OPENING static_ensemble_1133111.rch
 FILE TYPE:RCH   UNIT   19   STATUS:OLD    
 FORMAT:FORMATTED              ACCESS:SEQUENTIAL          

 OPENING static_ensemble_1133111.riv
 FILE TYPE:RIV   UNIT   18   STATUS:OLD    
 FORMAT:FORMATTED              ACCESS:SEQUENTIAL          

 OPENING static_ensemble_1133111.wel
 FILE TYPE:WEL   UNIT   20   STATUS:OLD    
 FORMAT:FORMATTED              ACCESS:SEQUENTIAL          

 OPENING static_ensemble_1133111.oc
 FILE TYPE:OC   UNIT   14   STATUS:OLD    
 FORMAT:FORMATTED              ACCESS:SEQUENTIAL          

 OPENING static_ensemble_1133111.pcg
 FILE TYPE:PCG   UNIT   27   STATUS:OLD    
 FORMAT:FORMATTED              ACCESS:SEQUENTIAL          

 OPENING static_ensemble_1133111.cbc
 FILE TYPE:DATA(BINARY)   UNIT   53   STATUS:REPLACE
 FORMAT:UNFORMATTED            ACCESS:STREAM              

 OPENING static_ensemble_1133111.hds
 FILE TYPE:DATA(BINARY)   UNIT   51   STATUS:REPLACE
 FORMAT:UNFORMATTED            ACCESS:STREAM              

 OPENING static_ensemble_1133111.ddn
 FILE TYPE:DATA(BINARY)   UNIT   52   STATUS:REPLACE
 FORMAT:UNFORMATTED            ACCESS:STREAM              

 BAS -- BASIC PACKAGE, VERSION 7, 5/2/2005 INPUT READ FROM UNIT   13
 
 MODFLOW was compiled using mixed precision
 Precision of REAL variables:           6
 Precision of DOUBLE PRECISION variables:          15

 DISCRETIZATION INPUT DATA READ FROM UNIT   11
 # DIS package for MODFLOW-2005 generated by Flopy 3.9.5
    3 LAYERS        50 ROWS        50 COLUMNS
   21 STRESS PERIOD(S) IN SIMULATION
 MODEL TIME UNIT IS DAYS
 MODEL LENGTH UNIT IS METERS
  Confining bed flag for each layer:
   0   0   0

                     DELR =   1000.00    

                     DELC =   1000.00    



           TOP ELEVATION OF LAYER 1
 READING ON UNIT   11 WITH FORMAT: (50E15.6)           



             MODEL LAYER BOTTOM EL. FOR LAYER   1
 READING ON UNIT   11 WITH FORMAT: (50E15.6)           



             MODEL LAYER BOTTOM EL. FOR LAYER   2
 READING ON UNIT   11 WITH FORMAT: (50E15.6)           



             MODEL LAYER BOTTOM EL. FOR LAYER   3
 READING ON UNIT   11 WITH FORMAT: (50E15.6)           


 STRESS PERIOD     LENGTH       TIME STEPS     MULTIPLIER FOR DELT    SS FLAG
 ----------------------------------------------------------------------------
        1         1.000000          1                    1.000         TR
        2         1.000000          1                    1.000         TR
        3         1.000000          1                    1.000         TR
        4         1.000000          1                    1.000         TR
        5         1.000000          1                    1.000         TR
        6         1.000000          1                    1.000         TR
        7         1.000000          1                    1.000         TR
        8         1.000000          1                    1.000         TR
        9         1.000000          1                    1.000         TR
       10         1.000000          1                    1.000         TR
       11         1.000000          1                    1.000         TR
       12         1.000000          1                    1.000         TR
       13         1.000000          1                    1.000         TR
       14         1.000000          1                    1.000         TR
       15         1.000000          1                    1.000         TR
       16         1.000000          1                    1.000         TR
       17         1.000000          1                    1.000         TR
       18         1.000000          1                    1.000         TR
       19         1.000000          1                    1.000         TR
       20         1.000000          1                    1.000         TR
       21         1.000000          1                    1.000         TR

 TRANSIENT SIMULATION



 
 # BAS6 package for MODFLOW-2005 generated by Flopy 3.9.5                        
 THE FREE FORMAT OPTION HAS BEEN SELECTED



                     BOUNDARY ARRAY FOR LAYER   1
 READING ON UNIT   13 WITH FORMAT: (50I10)             



                     BOUNDARY ARRAY FOR LAYER   2
 READING ON UNIT   13 WITH FORMAT: (50I10)             



                     BOUNDARY ARRAY FOR LAYER   3
 READING ON UNIT   13 WITH FORMAT: (50I10)             

 AQUIFER HEAD WILL BE SET TO  -999.99     AT ALL NO-FLOW NODES (IBOUND=0).



                       INITIAL HEAD FOR LAYER   1
 READING ON UNIT   13 WITH FORMAT: (50E15.6)           



                       INITIAL HEAD FOR LAYER   2
 READING ON UNIT   13 WITH FORMAT: (50E15.6)           



                       INITIAL HEAD FOR LAYER   3
 READING ON UNIT   13 WITH FORMAT: (50E15.6)           
 # OC package for MODFLOW-2005 generated by Flopy 3.9.5

 OUTPUT CONTROL IS SPECIFIED ONLY AT TIME STEPS FOR WHICH OUTPUT IS DESIRED
 COMPACT CELL-BY-CELL BUDGET FILES WILL BE WRITTEN
 AUXILIARY DATA WILL BE SAVED IN CELL-BY-CELL BUDGET FILES
 HEAD PRINT FORMAT CODE IS   0    DRAWDOWN PRINT FORMAT CODE IS   0
 HEADS WILL BE SAVED ON UNIT   51    DRAWDOWNS WILL BE SAVED ON UNIT   52

 LPF -- LAYER-PROPERTY FLOW PACKAGE, VERSION 7, 5/2/2005
         INPUT READ FROM UNIT   15
 # LPF package for MODFLOW-2005 generated by Flopy 3.9.5
 CELL-BY-CELL FLOWS WILL BE SAVED ON UNIT   53
 HEAD AT CELLS THAT CONVERT TO DRY= -1.00000E+30
 No named parameters
 STORAGECOEFFICIENT OPTION:
 Read storage coefficient rather than specific storage

   LAYER FLAGS:
 LAYER       LAYTYP        LAYAVG         CHANI        LAYVKA        LAYWET
 ---------------------------------------------------------------------------
    1             1             0     1.000E+00             0             0
    2             1             0     1.000E+00             0             0
    3             1             0     1.000E+00             0             0

   INTERPRETATION OF LAYER FLAGS:
                        INTERBLOCK     HORIZONTAL    DATA IN
         LAYER TYPE   TRANSMISSIVITY   ANISOTROPY   ARRAY VKA   WETTABILITY
 LAYER      (LAYTYP)      (LAYAVG)       (CHANI)      (LAYVKA)      (LAYWET)
 ---------------------------------------------------------------------------
    1   CONVERTIBLE      HARMONIC     1.000E+00    VERTICAL K  NON-WETTABLE
    2   CONVERTIBLE      HARMONIC     1.000E+00    VERTICAL K  NON-WETTABLE
    3   CONVERTIBLE      HARMONIC     1.000E+00    VERTICAL K  NON-WETTABLE

 WETTING CAPABILITY IS NOT ACTIVE IN ANY LAYER



              HYD. COND. ALONG ROWS FOR LAYER   1
 READING ON UNIT   15 WITH FORMAT: (50E15.6)           



                VERTICAL HYD. COND. FOR LAYER   1
 READING ON UNIT   15 WITH FORMAT: (50E15.6)           

      STORAGE COEFFICIENT =  1.000000E-06 FOR LAYER   1

           SPECIFIC YIELD =  0.300000     FOR LAYER   1



              HYD. COND. ALONG ROWS FOR LAYER   2
 READING ON UNIT   15 WITH FORMAT: (50E15.6)           



                VERTICAL HYD. COND. FOR LAYER   2
 READING ON UNIT   15 WITH FORMAT: (50E15.6)           

      STORAGE COEFFICIENT =  1.000000E-06 FOR LAYER   2

           SPECIFIC YIELD =  0.300000     FOR LAYER   2



              HYD. COND. ALONG ROWS FOR LAYER   3
 READING ON UNIT   15 WITH FORMAT: (50E15.6)           



                VERTICAL HYD. COND. FOR LAYER   3
 READING ON UNIT   15 WITH FORMAT: (50E15.6)           

      STORAGE COEFFICIENT =  1.000000E-06 FOR LAYER   3

           SPECIFIC YIELD =  0.300000     FOR LAYER   3

 WEL -- WELL PACKAGE, VERSION 7, 5/2/2005 INPUT READ FROM UNIT   20
 # WEL package for MODFLOW-2005 generated by Flopy 3.9.5
 No named parameters
 MAXIMUM OF      3 ACTIVE WELLS AT ONE TIME


     0 Well parameters

 RIV -- RIVER PACKAGE, VERSION 7, 5/2/2005 INPUT READ FROM UNIT   18
 # RIV package for MODFLOW-2005 generated by Flopy 3.9.5
 No named parameters
 MAXIMUM OF     49 ACTIVE RIVER REACHES AT ONE TIME
 CELL-BY-CELL FLOWS WILL BE SAVED ON UNIT   53


     0 River parameters

 EVT -- EVAPOTRANSPIRATION PACKAGE, VERSION 7, 5/2/2005
         INPUT READ FROM UNIT   22
 # EVT package for MODFLOW-2005 generated by Flopy 3.9.5
 No named parameters
 OPTION 3 -- EVAPOTRANSPIRATION FROM HIGHEST ACTIVE NODE IN EACH VERTICAL COLUMN
 CELL-BY-CELL FLOWS WILL BE SAVED ON UNIT   53


     0 Evapotranspiration parameters

 RCH -- RECHARGE PACKAGE, VERSION 7, 5/2/2005 INPUT READ FROM UNIT   19
 # RCH package for MODFLOW-2005 generated by Flopy 3.9.5
 No named parameters
 OPTION 3 -- RECHARGE TO HIGHEST ACTIVE NODE IN EACH VERTICAL COLUMN
 CELL-BY-CELL FLOWS WILL BE SAVED ON UNIT   53


     0 Recharge parameters

 PCG -- CONJUGATE-GRADIENT SOLUTION PACKAGE, VERSION 7, 5/2/2005
 # PCG package for MODFLOW-2005 generated by Flopy 3.9.5
 MAXIMUM OF   5000 CALLS OF SOLUTION ROUTINE
 MAXIMUM OF    500 INTERNAL ITERATIONS PER CALL TO SOLUTION ROUTINE
 MATRIX PRECONDITIONING TYPE :    1



                                    SOLUTION BY THE CONJUGATE-GRADIENT METHOD
                                   -------------------------------------------
                    MAXIMUM NUMBER OF CALLS TO PCG ROUTINE =     5000
                        MAXIMUM ITERATIONS PER CALL TO PCG =      500
                               MATRIX PRECONDITIONING TYPE =        1
        RELAXATION FACTOR (ONLY USED WITH PRECOND. TYPE 1) =    0.97000E+00
 PARAMETER OF POLYNOMIAL PRECOND. = 2 (2) OR IS CALCULATED :        0
                         HEAD CHANGE CRITERION FOR CLOSURE =    0.10000E-04
                     RESIDUAL CHANGE CRITERION FOR CLOSURE =    0.10000E-04
            PCG HEAD AND RESIDUAL CHANGE PRINTOUT INTERVAL =      999
     PRINTING FROM SOLVER IS LIMITED(1) OR SUPPRESSED (>1) =        3
                            STEADY-STATE DAMPING PARAMETER =    0.10000E-01
                               TRANSIENT DAMPING PARAMETER =    0.10000E-01
1
                            STRESS PERIOD NO.    1, LENGTH =   1.000000    
                            -----------------------------------------------

                              NUMBER OF TIME STEPS =     1

                               MULTIPLIER FOR DELT =     1.000

                            INITIAL TIME STEP SIZE =   1.000000    

 WELL NO.  LAYER   ROW   COL   STRESS RATE         
 --------------------------------------------------
      1      3     22     39      -1500.    
      2      1     13     15      -4500.    
      3      1     25     26       375.0    

      3 WELLS

 REACH NO.  LAYER   ROW   COL     STAGE      CONDUCTANCE     BOTTOM EL.         
 -------------------------------------------------------------------------------
      1      1     25      2       100.5           50.00           98.00    
      2      1     25      3       99.50           50.00           97.00    
      3      1     25      4       98.50           50.00           96.00    
      4      1     25      5       97.50           50.00           95.00    
      5      1     25      6       96.50           50.00           94.00    
      6      1     25      7       95.50           50.00           93.00    
      7      1     25      8       94.50           50.00           92.00    
      8      1     25      9       93.50           50.00           91.00    
      9      1     25     10       92.50           50.00           90.00    
     10      1     25     11       91.50           50.00           89.00    
     11      1     25     12       90.50           50.00           88.00    
     12      1     25     13       89.50           50.00           87.00    
     13      1     25     14       88.50           50.00           86.00    
     14      1     25     15       87.50           50.00           85.00    
     15      1     25     16       86.50           50.00           84.00    
     16      1     25     17       85.50           50.00           83.00    
     17      1     25     18       84.50           50.00           82.00    
     18      1     25     19       83.50           50.00           81.00    
     19      1     25     20       82.50           50.00           80.00    
     20      1     25     21       81.50           50.00           79.00    
     21      1     25     22       80.50           50.00           78.00    
     22      1     25     23       79.50           50.00           77.00    
     23      1     25     24       78.50           50.00           76.00    
     24      1     25     25       77.50           50.00           75.00    
     25      1     25     26       77.40           50.00           74.90    
     26      1     25     27       77.30           50.00           74.80    
     27      1     25     28       77.20           50.00           74.70    
     28      1     25     29       77.10           50.00           74.60    
     29      1     25     30       77.00           50.00           74.50    
     30      1     25     31       76.90           50.00           74.40    
     31      1     25     32       76.80           50.00           74.30    
     32      1     25     33       76.70           50.00           74.20    
     33      1     25     34       76.60           50.00           74.10    
     34      1     25     35       76.50           50.00           74.00    
     35      1     25     36       76.40           50.00           73.90    
     36      1     25     37       76.30           50.00           73.80    
     37      1     25     38       76.20           50.00           73.70    
     38      1     25     39       76.10           50.00           73.60    
     39      1     25     40       76.00           50.00           73.50    
     40      1     25     41       75.90           50.00           73.40    
     41      1     25     42       75.80           50.00           73.30    
     42      1     25     43       75.70           50.00           73.20    
     43      1     25     44       75.60           50.00           73.10    
     44      1     25     45       75.50           50.00           73.00    
     45      1     25     46       75.40           50.00           72.90    
     46      1     25     47       75.30           50.00           72.80    
     47      1     25     48       75.20           50.00           72.70    
     48      1     25     49       75.10           50.00           72.60    
     49      1     25     50       75.00           50.00           72.50    

     49 RIVER REACHES



                         ET SURFACE
 READING ON UNIT   22 WITH FORMAT: (50E15.6)           



            EVAPOTRANSPIRATION RATE
 READING ON UNIT   22 WITH FORMAT: (50E15.6)           

         EXTINCTION DEPTH =   10.0000    



                           RECHARGE
 READING ON UNIT   19 WITH FORMAT: (50E15.6)           
 
 SOLVING FOR HEAD 

 OUTPUT CONTROL FOR STRESS PERIOD    1   TIME STEP    1
    SAVE HEAD FOR ALL LAYERS
    SAVE DRAWDOWN FOR ALL LAYERS
    SAVE BUDGET
    PRINT HEAD FOR ALL LAYERS
    PRINT BUDGET
 UBDSV1 SAVING "         STORAGE" ON UNIT  53 AT TIME STEP  1, STRESS PERIOD   1
 UBDSV2 SAVING "   CONSTANT HEAD" ON UNIT  53 AT TIME STEP  1, STRESS PERIOD   1
 UBDSV1 SAVING "FLOW RIGHT FACE " ON UNIT  53 AT TIME STEP  1, STRESS PERIOD   1
 UBDSV1 SAVING "FLOW FRONT FACE " ON UNIT  53 AT TIME STEP  1, STRESS PERIOD   1
 UBDSV1 SAVING "FLOW LOWER FACE " ON UNIT  53 AT TIME STEP  1, STRESS PERIOD   1
 UBDSV4 SAVING "   RIVER LEAKAGE" ON UNIT  53 AT TIME STEP  1, STRESS PERIOD   1
 UBDSV3 SAVING "              ET" ON UNIT  53 AT TIME STEP  1, STRESS PERIOD   1
 UBDSV3 SAVING "        RECHARGE" ON UNIT  53 AT TIME STEP  1, STRESS PERIOD   1
1
              HEAD IN LAYER   1 AT END OF TIME STEP   1 IN STRESS PERIOD    1
  ---------------------------------------------------------------------------

            1           2           3           4           5           6           7           8           9          10
           11          12          13          14          15          16          17          18          19          20
           21          22          23          24          25          26          27          28          29          30
           31          32          33          34          35          36          37          38          39          40
           41          42          43          44          45          46          47          48          49          50
 ........................................................................................................................
   1  -1000.0     -1000.0     -1000.0     -1000.0     -1000.0     -1000.0     -1000.0     -1000.0     -1000.0     -1000.0    
      -1000.0     -1000.0     -1000.0     -1000.0     -1000.0     -1000.0     -1000.0     -1000.0     -1000.0     -1000.0    
      -1000.0     -1000.0     -1000.0     -1000.0     -1000.0     -1000.0     -1000.0     -1000.0     -1000.0     -1000.0    
      -1000.0     -1000.0     -1000.0     -1000.0     -1000.0     -1000.0     -1000.0     -1000.0     -1000.0     -1000.0    
      -1000.0     -1000.0     -1000.0     -1000.0     -1000.0     -1000.0     -1000.0     -1000.0     -1000.0       70.00    
   2  -1000.0     -1000.0     -1000.0     -1000.0     -1000.0       70.00       70.00       70.00       70.00       70.00    
        70.00       70.00       70.00       70.00       70.00       70.00       70.00       70.00       70.00       70.00    
        70.00       70.00       70.00       70.00       70.00       70.00       70.00       70.00       70.00       70.00    
        70.00       70.00       70.00       70.00       70.00       70.00       70.00       70.00       70.00       70.00    
        70.00       70.00       70.00       70.00       70.00       70.00       70.00       70.00       70.00       70.00    
   3  -1000.0     -1000.0     -1000.0     -1000.0       70.00       70.00       70.00       70.00       70.00       70.00    
        70.00       70.00       70.00       70.00       70.00       70.00       70.00       70.00       70.00       70.00    
        70.00       70.00       70.00       70.00       70.00       70.00       70.00       70.00       70.00       70.00    
        70.00       70.00       70.00       70.00       70.00       70.00       70.00       70.00       70.00       70.00    
        70.00       70.00       70.00       70.00       70.00       70.00       70.00       70.00       70.00       70.00    
   4  -1000.0     -1000.0     -1000.0       70.00       70.00       70.00       70.00       70.00       70.00       70.00    
        70.00       70.00       70.00       70.00       70.00       70.00       70.00       70.00       70.00       70.00    
        70.00       70.00       70.00       70.00       70.00       70.00       70.00       70.00       70.00       70.00    
        70.00       70.00       70.00       70.00       70.00       70.00       70.00       70.00       70.00       70.00    
        70.00       70.00       70.00       70.00       70.00       70.00       70.00       70.00       70.00       70.00    
   5  -1000.0     -1000.0       70.00       70.00       70.00       70.00       70.00       70.00       70.00       70.00    
        70.00       70.00       70.00       70.00       70.00       70.00       70.00       70.00       70.00       70.00    
        70.00       70.00       70.00       70.00       70.00       70.00       70.00       70.00       70.00       70.00    
        70.00       70.00       70.00       70.00       70.00       70.00       70.00       70.00       70.00       70.00    
        70.00       70.00       70.00       70.00       70.00       70.00       70.00       70.00       70.00       70.00    
   6  -1000.0       70.00       70.00       70.00       70.00       70.00       70.00       70.00       70.00       70.00    
        70.00       70.00       70.00       70.00       70.00       70.00       70.00       70.00       70.00       70.00    
        70.00       70.00       70.00       70.00       70.00       70.00       70.00       70.00       70.00       70.00    
        70.00       70.00       70.00       70.00       70.00       70.00       70.00       70.00       70.00       70.00    
        70.00       70.00       70.00       70.00       70.00       70.00       70.00       70.00       70.00       70.00    
   7  -1000.0       70.00       70.00       70.00       70.00       70.00       70.00       70.00       70.00       70.00    
        70.00       70.00       70.00       70.00       70.00       70.00       70.00       70.00       70.00       70.00    
        70.00       70.00       70.00       70.00       70.00       70.00       70.00       70.00       70.00       70.00    
        70.00       70.00       70.00       70.00       70.00       70.00       70.00       70.00       70.00       70.00    
        70.00       70.00       70.00       70.00       70.00       70.00       70.00       70.00       70.00       70.00    
   8  -1000.0       70.00       70.00       70.00       70.00       70.00       70.00       70.00       70.00       70.00    
        70.00       70.00       70.00       70.00       70.00       70.00       70.00       70.00       70.00       70.00    
        70.00       70.00       70.00       70.00       70.00       70.00       70.00       70.00       70.00       70.00    
        70.00       70.00       70.00       70.00       70.00       70.00       70.00       70.00       70.00       70.00    
        70.00       70.00       70.00       70.00       70.00       70.00       70.00       70.00       70.00       70.00    
   9  -1000.0       70.00       70.00       70.00       70.00       70.00       70.00       70.00       70.00       70.00    
        70.00       70.00       70.00       70.00       70.00       70.00       70.00       70.00       70.00       70.00    
        70.00       70.00       70.00       70.00       70.00       70.00       70.00       70.00       70.00       70.00    
        70.00       70.00       70.00       70.00       70.00       70.00       70.00       70.00       70.00       70.00    
        70.00       70.00       70.00       70.00       70.00       70.00       70.00       70.00       70.00       70.00    
  10  -1000.0       70.00       70.00       70.00       70.00       70.00       70.00       70.00       70.00       70.00    
        70.00       70.00       70.00       70.00       70.00       70.00       70.00       70.00       70.00       70.00    
        70.00       70.00       70.00       70.00       70.00       70.00       70.00       70.00       70.00       70.00    
        70.00       70.00       70.00       70.00       70.00       70.00       70.00       70.00       70.00       70.00    
        70.00       70.00       70.00       70.00       70.00       70.00       70.00       70.00       70.00       70.00    
  11  -1000.0       70.00       70.00       70.00       70.00       70.00       70.00       70.00       70.00       70.00    
        70.00       70.00       70.00       70.00       70.00       70.00       70.00       70.00       70.00       70.00    
        70.00       70.00       70.00       70.00       70.00       70.00       70.00       70.00       70.00       70.00    
        70.00       70.00       70.00       70.00       70.00       70.00       70.00       70.00       70.00       70.00    
        70.00       70.00       70.00       70.00       70.00       70.00       70.00       70.00       70.00       70.00    
  12  -1000.0       70.00       70.00       70.00       70.00       70.00       70.00       70.00       70.00       70.00    
        70.00       70.00       70.00       70.00       70.00       70.00       70.00       70.00       70.00       70.00    
        70.00       70.00       70.00       70.00       70.00       70.00       70.00       70.00       70.00       70.00    
        70.00       70.00       70.00       70.00       70.00       70.00       70.00       70.00       70.00       70.00    
        70.00       70.00       70.00       70.00       70.00       70.00       70.00       70.00       70.00       70.00    
  13  -1000.0       70.00       70.00       70.00       70.00       70.00       70.00       70.00       70.00       70.00    
        70.00       70.00       70.00       70.00       69.99       70.00       70.00       70.00       70.00       70.00    
        70.00       70.00       70.00       70.00       70.00       70.00       70.00       70.00       70.00       70.00    
        70.00       70.00       70.00       70.00       70.00       70.00       70.00       70.00       70.00       70.00    
        70.00       70.00       70.00       70.00       70.00       70.00       70.00       70.00       70.00       70.00    
  14  -1000.0       70.00       70.00       70.00       70.00       70.00       70.00       70.00       70.00       70.00    
        70.00       70.00       70.00       70.00       70.00       70.00       70.00       70.00       70.00       70.00    
        70.00       70.00       70.00       70.00       70.00       70.00       70.00       70.00       70.00       70.00    
        70.00       70.00       70.00       70.00       70.00       70.00       70.00       70.00       70.00       70.00    
        70.00       70.00       70.00       70.00       70.00       70.00       70.00       70.00       70.00       70.00    
  15  -1000.0       70.00       70.00       70.00       70.00       70.00       70.00       70.00       70.00       70.00    
        70.00       70.00       70.00       70.00       70.00       70.00       70.00       70.00       70.00       70.00    
        70.00       70.00       70.00       70.00       70.00       70.00       70.00       70.00       70.00       70.00    
        70.00       70.00       70.00       70.00       70.00       70.00       70.00       70.00       70.00       70.00    
        70.00       70.00       70.00       70.00       70.00       70.00       70.00       70.00       70.00       70.00    
  16  -1000.0       70.00       70.00       70.00       70.00       70.00       70.00       70.00       70.00       70.00    
        70.00       70.00       70.00       70.00       70.00       70.00       70.00       70.00       70.00       70.00    
        70.00       70.00       70.00       70.00       70.00       70.00       70.00       70.00       70.00       70.00    
        70.00       70.00       70.00       70.00       70.00       70.00       70.00       70.00       70.00       70.00    
        70.00       70.00       70.00       70.00       70.00       70.00       70.00       70.00       70.00       70.00    
  17  -1000.0       70.00       70.00       70.00       70.00       70.00       70.00       70.00       70.00       70.00    
        70.00       70.00       70.00       70.00       70.00       70.00       70.00       70.00       70.00       70.00    
        70.00       70.00       70.00       70.00       70.00       70.00       70.00       70.00       70.00       70.00    
        70.00       70.00       70.00       70.00       70.00       70.00       70.00       70.00       70.00       70.00    
        70.00       70.00       70.00       70.00       70.00       70.00       70.00       70.00       70.00       70.00    
  18  -1000.0       70.00       70.00       70.00       70.00       70.00       70.00       70.00       70.00       70.00    
        70.00       70.00       70.00       70.00       70.00       70.00       70.00       70.00       70.00       70.00    
        70.00       70.00       70.00       70.00       70.00       70.00       70.00       70.00       70.00       70.00    
        70.00       70.00       70.00       70.00       70.00       70.00       70.00       70.00       70.00       70.00    
        70.00       70.00       70.00       70.00       70.00       70.00       70.00       70.00       70.00       70.00    
  19  -1000.0       70.00       70.00       70.00       70.00       70.00       70.00       70.00       70.00       70.00    
        70.00       70.00       70.00       70.00       70.00       70.00       70.00       70.00       70.00       70.00    
        70.00       70.00       70.00       70.00       70.00       70.00       70.00       70.00       70.00       70.00    
        70.00       70.00       70.00       70.00       70.00       70.00       70.00       70.00       70.00       70.00    
        70.00       70.00       70.00       70.00       70.00       70.00       70.00       70.00       70.00       70.00    
  20  -1000.0       70.00       70.00       70.00       70.00       70.00       70.00       70.00       70.00       70.00    
        70.00       70.00       70.00       70.00       70.00       70.00       70.00       70.00       70.00       70.00    
        70.00       70.00       70.00       70.00       70.00       70.00       70.00       70.00       70.00       70.00    
        70.00       70.00       70.00       70.00       70.00       70.00       70.00       70.00       70.00       70.00    
        70.00       70.00       70.00       70.00       70.00       70.00       70.00       70.00       70.00       70.00    
  21  -1000.0       70.00       70.00       70.00       70.00       70.00       70.00       70.00       70.00       70.00    
        70.00       70.00       70.00       70.00       70.00       70.00       70.00       70.00       70.00       70.00    
        70.00       70.00       70.00       70.00       70.00       70.00       70.00       70.00       70.00       70.00    
        70.00       70.00       70.00       70.00       70.00       70.00       70.00       70.00       70.00       70.00    
        70.00       70.00       70.00       70.00       70.00       70.00       70.00       70.00       70.00       70.00    
  22  -1000.0       70.00       70.00       70.00       70.00       70.00       70.00       70.00       70.00       70.00    
        70.00       70.00       70.00       70.00       70.00       70.00       70.00       70.00       70.00       70.00    
        70.00       70.00       70.00       70.00       70.00       70.00       70.00       70.00       70.00       70.00    
        70.00       70.00       70.00       70.00       70.00       70.00       70.00       70.00       70.00       70.00    
        70.00       70.00       70.00       70.00       70.00       70.00       70.00       70.00       70.00       70.00    
  23  -1000.0       70.00       70.00       70.00       70.00       70.00       70.00       70.00       70.00       70.00    
        70.00       70.00       70.00       70.00       70.00       70.00       70.00       70.00       70.00       70.00    
        70.00       70.00       70.00       70.00       70.00       70.00       70.00       70.00       70.00       70.00    
        70.00       70.00       70.00       70.00       70.00       70.00       70.00       70.00       70.00       70.00    
        70.00       70.00       70.00       70.00       70.00       70.00       70.00       70.00       70.00       70.00    
  24  -1000.0       70.00       70.00       70.00       70.00       70.00       70.00       70.00       70.00       70.00    
        70.00       70.00       70.00       70.00       70.00       70.00       70.00       70.00       70.00       70.00    
        70.00       70.00       70.00       70.00       70.00       70.00       70.00       70.00       70.00       70.00    
        70.00       70.00       70.00       70.00       70.00       70.00       70.00       70.00       70.00       70.00    
        70.00       70.00       70.00       70.00       70.00       70.00       70.00       70.00       70.00       70.00    
  25  -1000.0       70.00       70.00       70.00       70.00       70.00       70.00       70.00       70.00       70.00    
        70.00       70.00       70.00       70.00       70.00       70.00       70.00       70.00       70.00       70.00    
        70.00       70.00       70.00       70.00       70.00       70.00       70.00       70.00       70.00       70.00    
        70.00       70.00       70.00       70.00       70.00       70.00       70.00       70.00       70.00       70.00    
        70.00       70.00       70.00       70.00       70.00       70.00       70.00       70.00       70.00       70.00    
  26  -1000.0       70.00       70.00       70.00       70.00       70.00       70.00       70.00       70.00       70.00    
        70.00       70.00       70.00       70.00       70.00       70.00       70.00       70.00       70.00       70.00    
        70.00       70.00       70.00       70.00       70.00       70.00       70.00       70.00       70.00       70.00    
        70.00       70.00       70.00       70.00       70.00       70.00       70.00       70.00       70.00       70.00    
        70.00       70.00       70.00       70.00       70.00       70.00       70.00       70.00       70.00       70.00    
  27  -1000.0       70.00       70.00       70.00       70.00       70.00       70.00       70.00       70.00       70.00    
        70.00       70.00       70.00       70.00       70.00       70.00       70.00       70.00       70.00       70.00    
        70.00       70.00       70.00       70.00       70.00       70.00       70.00       70.00       70.00       70.00    
        70.00       70.00       70.00       70.00       70.00       70.00       70.00       70.00       70.00       70.00    
        70.00       70.00       70.00       70.00       70.00       70.00       70.00       70.00       70.00       70.00    
  28  -1000.0       70.00       70.00       70.00       70.00       70.00       70.00       70.00       70.00       70.00    
        70.00       70.00       70.00       70.00       70.00       70.00       70.00       70.00       70.00       70.00    
        70.00       70.00       70.00       70.00       70.00       70.00       70.00       70.00       70.00       70.00    
        70.00       70.00       70.00       70.00       70.00       70.00       70.00       70.00       70.00       70.00    
        70.00       70.00       70.00       70.00       70.00       70.00       70.00       70.00       70.00       70.00    
  29  -1000.0       70.00       70.00       70.00       70.00       70.00       70.00       70.00       70.00       70.00    
        70.00       70.00       70.00       70.00       70.00       70.00       70.00       70.00       70.00       70.00    
        70.00       70.00       70.00       70.00       70.00       70.00       70.00       70.00       70.00       70.00    
        70.00       70.00       70.00       70.00       70.00       70.00       70.00       70.00       70.00       70.00    
        70.00       70.00       70.00       70.00       70.00       70.00       70.00       70.00       70.00       70.00    
  30  -1000.0       70.00       70.00       70.00       70.00       70.00       70.00       70.00       70.00       70.00    
        70.00       70.00       70.00       70.00       70.00       70.00       70.00       70.00       70.00       70.00    
        70.00       70.00       70.00       70.00       70.00       70.00       70.00       70.00       70.00       70.00    
        70.00       70.00       70.00       70.00       70.00       70.00       70.00       70.00       70.00       70.00    
        70.00       70.00       70.00       70.00       70.00       70.00       70.00       70.00       70.00       70.00    
  31  -1000.0       70.00       70.00       70.00       70.00       70.00       70.00       70.00       70.00       70.00    
        70.00       70.00       70.00       70.00       70.00       70.00       70.00       70.00       70.00       70.00    
        70.00       70.00       70.00       70.00       70.00       70.00       70.00       70.00       70.00       70.00    
        70.00       70.00       70.00       70.00       70.00       70.00       70.00       70.00       70.00       70.00    
        70.00       70.00       70.00       70.00       70.00       70.00       70.00       70.00       70.00       70.00    
  32  -1000.0       70.00       70.00       70.00       70.00       70.00       70.00       70.00       70.00       70.00    
        70.00       70.00       70.00       70.00       70.00       70.00       70.00       70.00       70.00       70.00    
        70.00       70.00       70.00       70.00       70.00       70.00       70.00       70.00       70.00       70.00    
        70.00       70.00       70.00       70.00       70.00       70.00       70.00       70.00       70.00       70.00    
        70.00       70.00       70.00       70.00       70.00       70.00       70.00       70.00       70.00       70.00    
  33  -1000.0       70.00       70.00       70.00       70.00       70.00       70.00       70.00       70.00       70.00    
        70.00       70.00       70.00       70.00       70.00       70.00       70.00       70.00       70.00       70.00    
        70.00       70.00       70.00       70.00       70.00       70.00       70.00       70.00       70.00       70.00    
        70.00       70.00       70.00       70.00       70.00       70.00       70.00       70.00       70.00       70.00    
        70.00       70.00       70.00       70.00       70.00       70.00       70.00       70.00       70.00       70.00    
  34  -1000.0       70.00       70.00       70.00       70.00       70.00       70.00       70.00       70.00       70.00    
        70.00       70.00       70.00       70.00       70.00       70.00       70.00       70.00       70.00       70.00    
        70.00       70.00       70.00       70.00       70.00       70.00       70.00       70.00       70.00       70.00    
        70.00       70.00       70.00       70.00       70.00       70.00       70.00       70.00       70.00       70.00    
        70.00       70.00       70.00       70.00       70.00       70.00       70.00       70.00       70.00       70.00    
  35  -1000.0       70.00       70.00       70.00       70.00       70.00       70.00       70.00       70.00       70.00    
        70.00       70.00       70.00       70.00       70.00       70.00       70.00       70.00       70.00       70.00    
        70.00       70.00       70.00       70.00       70.00       70.00       70.00       70.00       70.00       70.00    
        70.00       70.00       70.00       70.00       70.00       70.00       70.00       70.00       70.00       70.00    
        70.00       70.00       70.00       70.00       70.00       70.00       70.00       70.00       70.00       70.00    
  36  -1000.0       70.00       70.00       70.00       70.00       70.00       70.00       70.00       70.00       70.00    
        70.00       70.00       70.00       70.00       70.00       70.00       70.00       70.00       70.00       70.00    
        70.00       70.00       70.00       70.00       70.00       70.00       70.00       70.00       70.00       70.00    
        70.00       70.00       70.00       70.00       70.00       70.00       70.00       70.00       70.00       70.00    
        70.00       70.00       70.00       70.00       70.00       70.00       70.00       70.00       70.00       70.00    
  37  -1000.0       70.00       70.00       70.00       70.00       70.00       70.00       70.00       70.00       70.00    
        70.00       70.00       70.00       70.00       70.00       70.00       70.00       70.00       70.00       70.00    
        70.00       70.00       70.00       70.00       70.00       70.00       70.00       70.00       70.00       70.00    
        70.00       70.00       70.00       70.00       70.00       70.00       70.00       70.00       70.00       70.00    
        70.00       70.00       70.00       70.00       70.00       70.00       70.00       70.00       70.00       70.00    
  38  -1000.0       70.00       70.00       70.00       70.00       70.00       70.00       70.00       70.00       70.00    
        70.00       70.00       70.00       70.00       70.00       70.00       70.00       70.00       70.00       70.00    
        70.00       70.00       70.00       70.00       70.00       70.00       70.00       70.00       70.00       70.00    
        70.00       70.00       70.00       70.00       70.00       70.00       70.00       70.00       70.00       70.00    
        70.00       70.00       70.00       70.00       70.00       70.00       70.00       70.00       70.00       70.00    
  39  -1000.0       70.00       70.00       70.00       70.00       70.00       70.00       70.00       70.00       70.00    
        70.00       70.00       70.00       70.00       70.00       70.00       70.00       70.00       70.00       70.00    
        70.00       70.00       70.00       70.00       70.00       70.00       70.00       70.00       70.00       70.00    
        70.00       70.00       70.00       70.00       70.00       70.00       70.00       70.00       70.00       70.00    
        70.00       70.00       70.00       70.00       70.00       70.00       70.00       70.00       70.00       70.00    
  40  -1000.0       70.00       70.00       70.00       70.00       70.00       70.00       70.00       70.00       70.00    
        70.00       70.00       70.00       70.00       70.00       70.00       70.00       70.00       70.00       70.00    
        70.00       70.00       70.00       70.00       70.00       70.00       70.00       70.00       70.00       70.00    
        70.00       70.00       70.00       70.00       70.00       70.00       70.00       70.00       70.00       70.00    
        70.00       70.00       70.00       70.00       70.00       70.00       70.00       70.00       70.00       70.00    
  41  -1000.0       70.00       70.00       70.00       70.00       70.00       70.00       70.00       70.00       70.00    
        70.00       70.00       70.00       70.00       70.00       70.00       70.00       70.00       70.00       70.00    
        70.00       70.00       70.00       70.00       70.00       70.00       70.00       70.00       70.00       70.00    
        70.00       70.00       70.00       70.00       70.00       70.00       70.00       70.00       70.00       70.00    
        70.00       70.00       70.00       70.00       70.00       70.00       70.00       70.00       70.00       70.00    
  42  -1000.0       70.00       70.00       70.00       70.00       70.00       70.00       70.00       70.00       70.00    
        70.00       70.00       70.00       70.00       70.00       70.00       70.00       70.00       70.00       70.00    
        70.00       70.00       70.00       70.00       70.00       70.00       70.00       70.00       70.00       70.00    
        70.00       70.00       70.00       70.00       70.00       70.00       70.00       70.00       70.00       70.00    
        70.00       70.00       70.00       70.00       70.00       70.00       70.00       70.00       70.00       70.00    
  43  -1000.0       70.00       70.00       70.00       70.00       70.00       70.00       70.00       70.00       70.00    
        70.00       70.00       70.00       70.00       70.00       70.00       70.00       70.00       70.00       70.00    
        70.00       70.00       70.00       70.00       70.00       70.00       70.00       70.00       70.00       70.00    
        70.00       70.00       70.00       70.00       70.00       70.00       70.00       70.00       70.00       70.00    
        70.00       70.00       70.00       70.00       70.00       70.00       70.00       70.00       70.00       70.00    
  44  -1000.0       70.00       70.00       70.00       70.00       70.00       70.00       70.00       70.00       70.00    
        70.00       70.00       70.00       70.00       70.00       70.00       70.00       70.00       70.00       70.00    
        70.00       70.00       70.00       70.00       70.00       70.00       70.00       70.00       70.00       70.00    
        70.00       70.00       70.00       70.00       70.00       70.00       70.00       70.00       70.00       70.00    
        70.00       70.00       70.00       70.00       70.00       70.00       70.00       70.00       70.00       70.00    
  45  -1000.0       70.00       70.00       70.00       70.00       70.00       70.00       70.00       70.00       70.00    
        70.00       70.00       70.00       70.00       70.00       70.00       70.00       70.00       70.00       70.00    
        70.00       70.00       70.00       70.00       70.00       70.00       70.00       70.00       70.00       70.00    
        70.00       70.00       70.00       70.00       70.00       70.00       70.00       70.00       70.00       70.00    
        70.00       70.00       70.00       70.00       70.00       70.00       70.00       70.00       70.00       70.00    
  46  -1000.0     -1000.0       70.00       70.00       70.00       70.00       70.00       70.00       70.00       70.00    
        70.00       70.00       70.00       70.00       70.00       70.00       70.00       70.00       70.00       70.00    
        70.00       70.00       70.00       70.00       70.00       70.00       70.00       70.00       70.00       70.00    
        70.00       70.00       70.00       70.00       70.00       70.00       70.00       70.00       70.00       70.00    
        70.00       70.00       70.00       70.00       70.00       70.00       70.00       70.00       70.00       70.00    
  47  -1000.0     -1000.0     -1000.0       70.00       70.00       70.00       70.00       70.00       70.00       70.00    
        70.00       70.00       70.00       70.00       70.00       70.00       70.00       70.00       70.00       70.00    
        70.00       70.00       70.00       70.00       70.00       70.00       70.00       70.00       70.00       70.00    
        70.00       70.00       70.00       70.00       70.00       70.00       70.00       70.00       70.00       70.00    
        70.00       70.00       70.00       70.00       70.00       70.00       70.00       70.00       70.00       70.00    
  48  -1000.0     -1000.0     -1000.0     -1000.0       70.00       70.00       70.00       70.00       70.00       70.00    
        70.00       70.00       70.00       70.00       70.00       70.00       70.00       70.00       70.00       70.00    
        70.00       70.00       70.00       70.00       70.00       70.00       70.00       70.00       70.00       70.00    
        70.00       70.00       70.00       70.00       70.00       70.00       70.00       70.00       70.00       70.00    
        70.00       70.00       70.00       70.00       70.00       70.00       70.00       70.00       70.00       70.00    
  49  -1000.0     -1000.0     -1000.0     -1000.0     -1000.0       70.00       70.00       70.00       70.00       70.00    
        70.00       70.00       70.00       70.00       70.00       70.00       70.00       70.00       70.00       70.00    
        70.00       70.00       70.00       70.00       70.00       70.00       70.00       70.00       70.00       70.00    
        70.00       70.00       70.00       70.00       70.00       70.00       70.00       70.00       70.00       70.00    
        70.00       70.00       70.00       70.00       70.00       70.00       70.00       70.00       70.00       70.00    
  50  -1000.0     -1000.0     -1000.0     -1000.0     -1000.0     -1000.0     -1000.0     -1000.0     -1000.0     -1000.0    
      -1000.0     -1000.0     -1000.0     -1000.0     -1000.0     -1000.0     -1000.0     -1000.0     -1000.0     -1000.0    
      -1000.0     -1000.0     -1000.0     -1000.0     -1000.0     -1000.0     -1000.0     -1000.0     -1000.0     -1000.0    
      -1000.0     -1000.0     -1000.0     -1000.0     -1000.0     -1000.0     -1000.0     -1000.0     -1000.0     -1000.0    
      -1000.0     -1000.0     -1000.0     -1000.0     -1000.0     -1000.0     -1000.0     -1000.0     -1000.0       70.00    
1
              HEAD IN LAYER   2 AT END OF TIME STEP   1 IN STRESS PERIOD    1
  ---------------------------------------------------------------------------

            1           2           3           4           5           6           7           8           9          10
           11          12          13          14          15          16          17          18          19          20
           21          22          23          24          25          26          27          28          29          30
           31          32          33          34          35          36          37          38          39          40
           41          42          43          44          45          46          47          48          49          50
 ........................................................................................................................
   1  -1000.0     -1000.0     -1000.0     -1000.0     -1000.0     -1000.0     -1000.0     -1000.0     -1000.0     -1000.0    
      -1000.0     -1000.0     -1000.0     -1000.0     -1000.0     -1000.0     -1000.0     -1000.0     -1000.0     -1000.0    
      -1000.0     -1000.0     -1000.0     -1000.0     -1000.0     -1000.0     -1000.0     -1000.0     -1000.0     -1000.0    
      -1000.0     -1000.0     -1000.0     -1000.0     -1000.0     -1000.0     -1000.0     -1000.0     -1000.0     -1000.0    
      -1000.0     -1000.0     -1000.0     -1000.0     -1000.0     -1000.0     -1000.0     -1000.0     -1000.0       70.00    
   2  -1000.0     -1000.0     -1000.0     -1000.0     -1000.0     -1000.0     -1000.0       70.00       70.00       70.00    
        70.00       70.00       70.00       70.00       70.00       70.00       70.00       70.00       70.00       70.00    
        69.99       69.99       69.98       69.98       69.97       69.97       69.96       69.96       69.95       69.95    
        69.95       69.94       69.94       69.94       69.94       69.94       69.94       69.94       69.94       69.94    
        69.94       69.95       69.95       69.96       69.96       69.97       69.98       69.98       69.99       70.00    
   3  -1000.0     -1000.0     -1000.0     -1000.0     -1000.0     -1000.0       70.00       70.00       70.00       70.00    
        70.00       70.00       70.00       70.00       70.00       70.00       70.00       70.00       70.00       70.00    
        69.99       69.99       69.98       69.98       69.97       69.97       69.96       69.96       69.95       69.95    
        69.95       69.94       69.94       69.94       69.94       69.93       69.93       69.94       69.94       69.94    
        69.94       69.95       69.95       69.96       69.96       69.97       69.98       69.98       69.99       70.00    
   4  -1000.0     -1000.0     -1000.0     -1000.0     -1000.0       70.00       70.00       70.00       70.00       70.00    
        70.00       70.00       70.00       70.00       70.00       70.00       70.00       70.00       70.00       70.00    
        69.99       69.99       69.98       69.98       69.97       69.97       69.96       69.96       69.95       69.95    
        69.94       69.94       69.94       69.93       69.93       69.93       69.93       69.93       69.93       69.94    
        69.94       69.94       69.95       69.96       69.96       69.97       69.98       69.98       69.99       70.00    
   5  -1000.0     -1000.0     -1000.0     -1000.0       70.00       70.00       70.00       70.00       70.00       70.00    
        70.00       70.00       70.00       70.00       70.00       70.00       70.00       70.00       70.00       70.00    
        69.99       69.99       69.98       69.98       69.97       69.97       69.96       69.95       69.95       69.95    
        69.94       69.94       69.93       69.93       69.93       69.93       69.93       69.93       69.93       69.93    
        69.94       69.94       69.95       69.95       69.96       69.97       69.97       69.98       69.99       70.00    
   6  -1000.0     -1000.0     -1000.0       70.00       70.00       70.00       70.00       70.00       70.00       70.00    
        70.00       70.00       70.00       70.00       70.00       70.00       70.00       70.00       70.00       70.00    
        69.99       69.99       69.98       69.98       69.97       69.96       69.96       69.95       69.95       69.94    
        69.94       69.93       69.93       69.93       69.92       69.92       69.92       69.92       69.92       69.93    
        69.93       69.93       69.94       69.95       69.95       69.96       69.97       69.98       69.99       70.00    
   7  -1000.0     -1000.0       70.00       70.00       70.00       70.00       70.00       70.00       70.00       70.00    
        70.00       70.00       70.00       70.00       70.00       70.00       70.00       70.00       70.00       70.00    
        69.99       69.99       69.98       69.97       69.97       69.96       69.95       69.95       69.94       69.94    
        69.93       69.93       69.92       69.92       69.92       69.91       69.91       69.91       69.91       69.92    
        69.92       69.93       69.93       69.94       69.95       69.96       69.97       69.98       69.99       70.00    
   8  -1000.0       70.00       70.00       70.00       70.00       70.00       70.00       70.00       70.00       70.00    
        70.00       70.00       70.00       70.00       70.00       70.00       70.00       70.00       70.00       70.00    
        69.99       69.99       69.98       69.97       69.97       69.96       69.95       69.94       69.94       69.93    
        69.92       69.92       69.91       69.91       69.91       69.90       69.90       69.90       69.90       69.91    
        69.91       69.92       69.93       69.93       69.94       69.95       69.96       69.98       69.99       70.00    
   9  -1000.0       70.00       70.00       70.00       70.00       70.00       70.00       70.00       70.00       70.00    
        70.00       70.00       70.00       70.00       70.00       70.00       70.00       70.00       70.00       70.00    
        69.99       69.99       69.98       69.97       69.96       69.95       69.95       69.94       69.93       69.92    
        69.92       69.91       69.90       69.90       69.89       69.89       69.89       69.89       69.89       69.90    
        69.90       69.91       69.92       69.93       69.94       69.95       69.96       69.97       69.99       70.00    
  10  -1000.0       70.00       70.00       70.00       70.00       70.00       70.00       70.00       70.00       70.00    
        70.00       70.00       70.00       70.00       70.00       70.00       70.00       70.00       70.00       70.00    
        69.99       69.98       69.98       69.97       69.96       69.95       69.94       69.93       69.93       69.92    
        69.91       69.90       69.89       69.89       69.88       69.88       69.87       69.87       69.88       69.88    
        69.89       69.89       69.90       69.91       69.93       69.94       69.95       69.97       69.98       70.00    
  11  -1000.0       70.00       70.00       70.00       70.00       70.00       70.00       70.00       70.00       70.00    
        70.00       70.00       70.00       70.00       70.00       70.00       70.00       70.00       70.00       70.00    
        69.99       69.98       69.97       69.97       69.96       69.95       69.94       69.93       69.92       69.91    
        69.90       69.89       69.88       69.87       69.86       69.86       69.86       69.86       69.86       69.86    
        69.87       69.88       69.89       69.90       69.92       69.93       69.95       69.97       69.98       70.00    
  12  -1000.0       70.00       70.00       70.00       70.00       70.00       70.00       70.00       70.00       70.00    
        70.00       70.00       70.00       70.00       70.00       70.00       70.00       70.00       70.00       70.00    
        69.99       69.98       69.97       69.96       69.95       69.94       69.93       69.92       69.91       69.90    
        69.89       69.88       69.86       69.85       69.85       69.84       69.83       69.83       69.83       69.84    
        69.85       69.86       69.87       69.89       69.90       69.92       69.94       69.96       69.98       70.00    
  13  -1000.0       70.00       70.00       70.00       70.00       70.00       70.00       70.00       70.00       70.00    
        70.00       70.00       70.00       70.00       69.99       70.00       70.00       70.00       70.00       70.00    
        69.99       69.98       69.97       69.96       69.95       69.94       69.93       69.91       69.90       69.89    
        69.87       69.86       69.85       69.83       69.82       69.81       69.81       69.81       69.81       69.81    
        69.82       69.83       69.85       69.87       69.89       69.91       69.93       69.95       69.98       70.00    
  14  -1000.0       70.00       70.00       70.00       70.00       70.00       70.00       70.00       70.00       70.00    
        70.00       70.00       70.00       70.00       70.00       70.00       70.00       70.00       70.00       70.00    
        69.99       69.98       69.97       69.96       69.94       69.93       69.92       69.91       69.89       69.88    
        69.86       69.84       69.83       69.81       69.80       69.79       69.78       69.77       69.78       69.78    
        69.79       69.81       69.83       69.85       69.87       69.90       69.92       69.95       69.97       70.00    
  15  -1000.0       70.00       70.00       70.00       70.00       70.00       70.00       70.00       70.00       70.00    
        70.00       70.00       70.00       70.00       70.00       70.00       70.00       70.00       70.00       70.00    
        69.99       69.98       69.97       69.95       69.94       69.93       69.91       69.90       69.88       69.86    
        69.85       69.83       69.81       69.79       69.77       69.75       69.74       69.74       69.74       69.74    
        69.76       69.78       69.80       69.83       69.85       69.88       69.91       69.94       69.97       70.00    
  16  -1000.0       70.00       70.00       70.00       70.00       70.00       70.00       70.00       70.00       70.00    
        70.00       70.00       70.00       70.00       70.00       70.00       70.00       70.00       70.00       70.00    
        69.99       69.98       69.96       69.95       69.94       69.92       69.91       69.89       69.87       69.85    
        69.83       69.81       69.78       69.76       69.74       69.72       69.70       69.69       69.69       69.70    
        69.72       69.74       69.77       69.80       69.83       69.87       69.90       69.93       69.97       70.00    
  17  -1000.0       70.00       70.00       70.00       70.00       70.00       70.00       70.00       70.00       70.00    
        70.00       70.00       70.00       70.00       70.00       70.00       70.00       70.00       70.00       70.00    
        69.99       69.97       69.96       69.95       69.93       69.92       69.90       69.88       69.86       69.84    
        69.81       69.79       69.76       69.73       69.70       69.68       69.65       69.64       69.64       69.65    
        69.67       69.70       69.74       69.77       69.81       69.85       69.89       69.93       69.96       70.00    
  18  -1000.0       70.00       70.00       70.00       70.00       70.00       70.00       70.00       70.00       70.00    
        70.00       70.00       70.00       70.00       70.00       70.00       70.00       70.00       70.00       70.00    
        69.99       69.97       69.96       69.95       69.93       69.91       69.89       69.87       69.85       69.83    
        69.80       69.77       69.74       69.70       69.67       69.63       69.60       69.58       69.58       69.59    
        69.62       69.66       69.70       69.75       69.79       69.84       69.88       69.92       69.96       70.00    
  19  -1000.0       70.00       70.00       70.00       70.00       70.00       70.00       70.00       70.00       70.00    
        70.00       70.00       70.00       70.00       70.00       70.00       70.00       70.00       70.00       70.00    
        69.99       69.97       69.96       69.94       69.93       69.91       69.89       69.87       69.84       69.82    
        69.79       69.75       69.72       69.67       69.63       69.59       69.54       69.52       69.51       69.52    
        69.56       69.61       69.67       69.72       69.77       69.82       69.87       69.91       69.96       70.00    
  20  -1000.0       70.00       70.00       70.00       70.00       70.00       70.00       70.00       70.00       70.00    
        70.00       70.00       70.00       70.00       70.00       70.00       70.00       70.00       70.00       70.00    
        69.99       69.97       69.96       69.94       69.93       69.91       69.89       69.86       69.84       69.81    
        69.78       69.74       69.70       69.65       69.60       69.54       69.49       69.45       69.43       69.45    
        69.51       69.57       69.63       69.70       69.76       69.81       69.86       69.91       69.96       70.00    
  21  -1000.0       70.00       70.00       70.00       70.00       70.00       70.00       70.00       70.00       70.00    
        70.00       70.00       70.00       70.00       70.00       70.00       70.00       70.00       70.00       70.00    
        69.99       69.97       69.96       69.94       69.92       69.91       69.88       69.86       69.84       69.81    
        69.77       69.73       69.69       69.63       69.58       69.51       69.44       69.38       69.35       69.39    
        69.46       69.54       69.61       69.68       69.74       69.80       69.86       69.91       69.95       70.00    
  22  -1000.0       70.00       70.00       70.00       70.00       70.00       70.00       70.00       70.00       70.00    
        70.00       70.00       70.00       70.00       70.00       70.00       70.00       70.00       70.00       70.00    
        69.99       69.97       69.96       69.94       69.92       69.90       69.88       69.86       69.83       69.80    
        69.77       69.73       69.68       69.63       69.57       69.50       69.42       69.35       69.29       69.36    
        69.44       69.52       69.60       69.68       69.74       69.80       69.85       69.90       69.95       70.00    
  23  -1000.0       70.00       70.00       70.00       70.00       70.00       70.00       70.00       70.00       70.00    
        70.00       70.00       70.00       70.00       70.00       70.00       70.00       70.00       70.00       70.00    
        69.99       69.97       69.96       69.94       69.92       69.91       69.88       69.86       69.84       69.81    
        69.77       69.73       69.69       69.63       69.58       69.51       69.44       69.38       69.35       69.39    
        69.46       69.54       69.61       69.68       69.74       69.80       69.86       69.91       69.95       70.00    
  24  -1000.0       70.00       70.00       70.00       70.00       70.00       70.00       70.00       70.00       70.00    
        70.00       70.00       70.00       70.00       70.00       70.00       70.00       70.00       70.00       70.00    
        69.99       69.97       69.96       69.94       69.93       69.91       69.89       69.86       69.84       69.81    
        69.78       69.74       69.70       69.65       69.60       69.54       69.49       69.45       69.43       69.46    
        69.51       69.57       69.63       69.70       69.76       69.81       69.86       69.91       69.96       70.00    
  25  -1000.0       70.00       70.00       70.00       70.00       70.00       70.00       70.00       70.00       70.00    
        70.00       70.00       70.00       70.00       70.00       70.00       70.00       70.00       70.00       70.00    
        69.99       69.97       69.96       69.94       69.93       69.91       69.89       69.87       69.85       69.82    
        69.79       69.75       69.72       69.68       69.63       69.59       69.55       69.52       69.51       69.52    
        69.56       69.61       69.67       69.72       69.77       69.82       69.87       69.91       69.96       70.00    
  26  -1000.0       70.00       70.00       70.00       70.00       70.00       70.00       70.00       70.00       70.00    
        70.00       70.00       70.00       70.00       70.00       70.00       70.00       70.00       70.00       70.00    
        69.99       69.97       69.96       69.95       69.93       69.91       69.90       69.88       69.85       69.83    
        69.80       69.77       69.74       69.70       69.67       69.63       69.60       69.58       69.58       69.59    
        69.62       69.66       69.70       69.75       69.79       69.84       69.88       69.92       69.96       70.00    
  27  -1000.0       70.00       70.00       70.00       70.00       70.00       70.00       70.00       70.00       70.00    
        70.00       70.00       70.00       70.00       70.00       70.00       70.00       70.00       70.00       70.00    
        69.99       69.98       69.96       69.95       69.93       69.92       69.90       69.88       69.86       69.84    
        69.82       69.79       69.76       69.73       69.70       69.68       69.66       69.64       69.64       69.65    
        69.67       69.70       69.74       69.78       69.81       69.85       69.89       69.93       69.96       70.00    
  28  -1000.0       70.00       70.00       70.00       70.00       70.00       70.00       70.00       70.00       70.00    
        70.00       70.00       70.00       70.00       70.00       70.00       70.00       70.00       70.00       70.00    
        69.99       69.98       69.96       69.95       69.94       69.92       69.91       69.89       69.87       69.85    
        69.83       69.81       69.79       69.76       69.74       69.72       69.70       69.69       69.69       69.70    
        69.72       69.74       69.77       69.80       69.84       69.87       69.90       69.93       69.97       70.00    
  29  -1000.0       70.00       70.00       70.00       70.00       70.00       70.00       70.00       70.00       70.00    
        70.00       70.00       70.00       70.00       70.00       70.00       70.00       70.00       70.00       70.00    
        69.99       69.98       69.97       69.95       69.94       69.93       69.91       69.90       69.88       69.87    
        69.85       69.83       69.81       69.79       69.77       69.76       69.75       69.74       69.74       69.75    
        69.76       69.78       69.80       69.83       69.86       69.88       69.91       69.94       69.97       70.00    
  30  -1000.0       70.00       70.00       70.00       70.00       70.00       70.00       70.00       70.00       70.00    
        70.00       70.00       70.00       70.00       70.00       70.00       70.00       70.00       70.00       70.00    
        69.99       69.98       69.97       69.96       69.95       69.93       69.92       69.91       69.89       69.88    
        69.86       69.85       69.83       69.82       69.80       69.79       69.78       69.78       69.78       69.78    
        69.80       69.81       69.83       69.85       69.87       69.90       69.92       69.95       69.97       70.00    
  31  -1000.0       70.00       70.00       70.00       70.00       70.00       70.00       70.00       70.00       70.00    
        70.00       70.00       70.00       70.00       70.00       70.00       70.00       70.00       70.00       70.00    
        69.99       69.98       69.97       69.96       69.95       69.94       69.93       69.92       69.90       69.89    
        69.88       69.86       69.85       69.84       69.83       69.82       69.81       69.81       69.81       69.82    
        69.83       69.84       69.85       69.87       69.89       69.91       69.93       69.96       69.98       70.00    
  32  -1000.0       70.00       70.00       70.00       70.00       70.00       70.00       70.00       70.00       70.00    
        70.00       70.00       70.00       70.00       70.00       70.00       70.00       70.00       70.00       70.00    
        69.99       69.98       69.97       69.96       69.95       69.95       69.93       69.92       69.91       69.90    
        69.89       69.88       69.87       69.86       69.85       69.84       69.84       69.84       69.84       69.84    
        69.85       69.86       69.88       69.89       69.91       69.92       69.94       69.96       69.98       70.00    
  33  -1000.0       70.00       70.00       70.00       70.00       70.00       70.00       70.00       70.00       70.00    
        70.00       70.00       70.00       70.00       70.00       70.00       70.00       70.00       70.00       70.00    
        69.99       69.98       69.98       69.97       69.96       69.95       69.94       69.93       69.92       69.91    
        69.90       69.89       69.89       69.88       69.87       69.87       69.86       69.86       69.86       69.87    
        69.87       69.88       69.89       69.91       69.92       69.93       69.95       69.97       69.98       70.00    
  34  -1000.0       70.00       70.00       70.00       70.00       70.00       70.00       70.00       70.00       70.00    
        70.00       70.00       70.00       70.00       70.00       70.00       70.00       70.00       70.00       70.00    
        69.99       69.99       69.98       69.97       69.96       69.96       69.95       69.94       69.93       69.92    
        69.91       69.91       69.90       69.89       69.89       69.88       69.88       69.88       69.88       69.89    
        69.89       69.90       69.91       69.92       69.93       69.94       69.96       69.97       69.99       70.00    
  35  -1000.0       70.00       70.00       70.00       70.00       70.00       70.00       70.00       70.00       70.00    
        70.00       70.00       70.00       70.00       70.00       70.00       70.00       70.00       70.00       70.00    
        69.99       69.99       69.98       69.97       69.97       69.96       69.95       69.95       69.94       69.93    
        69.93       69.92       69.91       69.91       69.90       69.90       69.90       69.90       69.90       69.90    
        69.91       69.91       69.92       69.93       69.94       69.95       69.96       69.98       69.99       70.00    
  36  -1000.0       70.00       70.00       70.00       70.00       70.00       70.00       70.00       70.00       70.00    
        70.00       70.00       70.00       70.00       70.00       70.00       70.00       70.00       70.00       70.00    
        69.99       69.99       69.98       69.98       69.97       69.96       69.96       69.95       69.95       69.94    
        69.93       69.93       69.92       69.92       69.92       69.91       69.91       69.91       69.91       69.92    
        69.92       69.93       69.93       69.94       69.95       69.96       69.97       69.98       69.99       70.00    
  37  -1000.0       70.00       70.00       70.00       70.00       70.00       70.00       70.00       70.00       70.00    
        70.00       70.00       70.00       70.00       70.00       70.00       70.00       70.00       70.00       70.00    
        69.99       69.99       69.98       69.98       69.97       69.97       69.96       69.96       69.95       69.95    
        69.94       69.94       69.93       69.93       69.93       69.93       69.92       69.93       69.93       69.93    
        69.93       69.94       69.94       69.95       69.96       69.96       69.97       69.98       69.99       70.00    
  38  -1000.0       70.00       70.00       70.00       70.00       70.00       70.00       70.00       70.00       70.00    
        70.00       70.00       70.00       70.00       70.00       70.00       70.00       70.00       70.00       70.00    
        70.00       69.99       69.99       69.98       69.98       69.97       69.97       69.96       69.96       69.95    
        69.95       69.95       69.94       69.94       69.94       69.94       69.93       69.94       69.94       69.94    
        69.94       69.95       69.95       69.96       69.96       69.97       69.98       69.98       69.99       70.00    
  39  -1000.0       70.00       70.00       70.00       70.00       70.00       70.00       70.00       70.00       70.00    
        70.00       70.00       70.00       70.00       70.00       70.00       70.00       70.00       70.00       70.00    
        70.00       69.99       69.99       69.98       69.98       69.97       69.97       69.97       69.96       69.96    
        69.95       69.95       69.95       69.95       69.94       69.94       69.94       69.94       69.95       69.95    
        69.95       69.95       69.96       69.96       69.97       69.97       69.98       69.99       69.99       70.00    
  40  -1000.0       70.00       70.00       70.00       70.00       70.00       70.00       70.00       70.00       70.00    
        70.00       70.00       70.00       70.00       70.00       70.00       70.00       70.00       70.00       70.00    
        70.00       69.99       69.99       69.98       69.98       69.98       69.97       69.97       69.97       69.96    
        69.96       69.96       69.96       69.95       69.95       69.95       69.95       69.95       69.95       69.95    
        69.96       69.96       69.96       69.97       69.97       69.98       69.98       69.99       69.99       70.00    
  41  -1000.0       70.00       70.00       70.00       70.00       70.00       70.00       70.00       70.00       70.00    
        70.00       70.00       70.00       70.00       70.00       70.00       70.00       70.00       70.00       70.00    
        70.00       69.99       69.99       69.99       69.98       69.98       69.98       69.97       69.97       69.97    
        69.96       69.96       69.96       69.96       69.96       69.96       69.96       69.96       69.96       69.96    
        69.96       69.96       69.97       69.97       69.98       69.98       69.98       69.99       69.99       70.00    
  42  -1000.0       70.00       70.00       70.00       70.00       70.00       70.00       70.00       70.00       70.00    
        70.00       70.00       70.00       70.00       70.00       70.00       70.00       70.00       70.00       70.00    
        70.00       69.99       69.99       69.99       69.98       69.98       69.98       69.98       69.97       69.97    
        69.97       69.97       69.96       69.96       69.96       69.96       69.96       69.96       69.96       69.96    
        69.97       69.97       69.97       69.98       69.98       69.98       69.99       69.99       70.00       70.00    
  43  -1000.0       70.00       70.00       70.00       70.00       70.00       70.00       70.00       70.00       70.00    
        70.00       70.00       70.00       70.00       70.00       70.00       70.00       70.00       70.00       70.00    
        70.00       69.99       69.99       69.99       69.99       69.98       69.98       69.98       69.98       69.97    
        69.97       69.97       69.97       69.97       69.97       69.97       69.97       69.97       69.97       69.97    
        69.97       69.97       69.98       69.98       69.98       69.98       69.99       69.99       70.00       70.00    
  44  -1000.0     -1000.0       70.00       70.00       70.00       70.00       70.00       70.00       70.00       70.00    
        70.00       70.00       70.00       70.00       70.00       70.00       70.00       70.00       70.00       70.00    
        70.00       69.99       69.99       69.99       69.99       69.98       69.98       69.98       69.98       69.98    
        69.97       69.97       69.97       69.97       69.97       69.97       69.97       69.97       69.97       69.97    
        69.97       69.98       69.98       69.98       69.98       69.99       69.99       69.99       70.00       70.00    
  45  -1000.0     -1000.0     -1000.0       70.00       70.00       70.00       70.00       70.00       70.00       70.00    
        70.00       70.00       70.00       70.00       70.00       70.00       70.00       70.00       70.00       70.00    
        70.00       70.00       69.99       69.99       69.99       69.99       69.98       69.98       69.98       69.98    
        69.98       69.97       69.97       69.97       69.97       69.97       69.97       69.97       69.97       69.97    
        69.98       69.98       69.98       69.98       69.98       69.99       69.99       69.99       70.00       70.00    
  46  -1000.0     -1000.0     -1000.0     -1000.0       70.00       70.00       70.00       70.00       70.00       70.00    
        70.00       70.00       70.00       70.00       70.00       70.00       70.00       70.00       70.00       70.00    
        70.00       70.00       69.99       69.99       69.99       69.99       69.98       69.98       69.98       69.98    
        69.98       69.98       69.98       69.98       69.97       69.97       69.97       69.98       69.98       69.98    
        69.98       69.98       69.98       69.98       69.99       69.99       69.99       69.99       70.00       70.00    
  47  -1000.0     -1000.0     -1000.0     -1000.0     -1000.0       70.00       70.00       70.00       70.00       70.00    
        70.00       70.00       70.00       70.00       70.00       70.00       70.00       70.00       70.00       70.00    
        70.00       70.00       69.99       69.99       69.99       69.99       69.99       69.98       69.98       69.98    
        69.98       69.98       69.98       69.98       69.98       69.98       69.98       69.98       69.98       69.98    
        69.98       69.98       69.98       69.98       69.99       69.99       69.99       69.99       70.00       70.00    
  48  -1000.0     -1000.0     -1000.0     -1000.0     -1000.0     -1000.0       70.00       70.00       70.00       70.00    
        70.00       70.00       70.00       70.00       70.00       70.00       70.00       70.00       70.00       70.00    
        70.00       70.00       69.99       69.99       69.99       69.99       69.99       69.98       69.98       69.98    
        69.98       69.98       69.98       69.98       69.98       69.98       69.98       69.98       69.98       69.98    
        69.98       69.98       69.98       69.99       69.99       69.99       69.99       69.99       70.00       70.00    
  49  -1000.0     -1000.0     -1000.0     -1000.0     -1000.0     -1000.0     -1000.0       70.00       70.00       70.00    
        70.00       70.00       70.00       70.00       70.00       70.00       70.00       70.00       70.00       70.00    
        70.00       70.00       69.99       69.99       69.99       69.99       69.99       69.98       69.98       69.98    
        69.98       69.98       69.98       69.98       69.98       69.98       69.98       69.98       69.98       69.98    
        69.98       69.98       69.98       69.99       69.99       69.99       69.99       69.99       70.00       70.00    
  50  -1000.0     -1000.0     -1000.0     -1000.0     -1000.0     -1000.0     -1000.0     -1000.0     -1000.0     -1000.0    
      -1000.0     -1000.0     -1000.0     -1000.0     -1000.0     -1000.0     -1000.0     -1000.0     -1000.0     -1000.0    
      -1000.0     -1000.0     -1000.0     -1000.0     -1000.0     -1000.0     -1000.0     -1000.0     -1000.0     -1000.0    
      -1000.0     -1000.0     -1000.0     -1000.0     -1000.0     -1000.0     -1000.0     -1000.0     -1000.0     -1000.0    
      -1000.0     -1000.0     -1000.0     -1000.0     -1000.0     -1000.0     -1000.0     -1000.0     -1000.0       70.00    
1
              HEAD IN LAYER   3 AT END OF TIME STEP   1 IN STRESS PERIOD    1
  ---------------------------------------------------------------------------

            1           2           3           4           5           6           7           8           9          10
           11          12          13          14          15          16          17          18          19          20
           21          22          23          24          25          26          27          28          29          30
           31          32          33          34          35          36          37          38          39          40
           41          42          43          44          45          46          47          48          49          50
 ........................................................................................................................
   1  -1000.0     -1000.0     -1000.0     -1000.0     -1000.0     -1000.0     -1000.0     -1000.0     -1000.0     -1000.0    
      -1000.0     -1000.0     -1000.0     -1000.0     -1000.0     -1000.0     -1000.0     -1000.0     -1000.0     -1000.0    
      -1000.0     -1000.0     -1000.0     -1000.0     -1000.0     -1000.0     -1000.0     -1000.0     -1000.0     -1000.0    
      -1000.0     -1000.0     -1000.0     -1000.0     -1000.0     -1000.0     -1000.0     -1000.0     -1000.0     -1000.0    
      -1000.0     -1000.0     -1000.0     -1000.0     -1000.0     -1000.0     -1000.0     -1000.0     -1000.0       70.00    
   2  -1000.0     -1000.0     -1000.0     -1000.0     -1000.0     -1000.0     -1000.0     -1000.0     -1000.0       70.00    
        70.00       70.00       70.00       70.00       70.00       70.00       70.00       70.00       70.00       70.00    
        69.99       69.97       69.96       69.95       69.94       69.93       69.91       69.90       69.89       69.88    
        69.87       69.87       69.86       69.86       69.85       69.85       69.85       69.85       69.85       69.86    
        69.87       69.88       69.89       69.90       69.92       69.93       69.95       69.96       69.98       70.00    
   3  -1000.0     -1000.0     -1000.0     -1000.0     -1000.0     -1000.0     -1000.0     -1000.0       70.00       70.00    
        70.00       70.00       70.00       70.00       70.00       70.00       70.00       70.00       70.00       70.00    
        69.99       69.97       69.96       69.95       69.94       69.92       69.91       69.90       69.89       69.88    
        69.87       69.86       69.86       69.85       69.85       69.85       69.85       69.85       69.85       69.86    
        69.86       69.87       69.89       69.90       69.91       69.93       69.95       69.96       69.98       70.00    
   4  -1000.0     -1000.0     -1000.0     -1000.0     -1000.0     -1000.0     -1000.0       70.00       70.00       70.00    
        70.00       70.00       70.00       70.00       70.00       70.00       70.00       70.00       70.00       70.00    
        69.99       69.97       69.96       69.95       69.93       69.92       69.91       69.90       69.89       69.88    
        69.87       69.86       69.85       69.85       69.84       69.84       69.84       69.84       69.84       69.85    
        69.86       69.87       69.88       69.89       69.91       69.93       69.94       69.96       69.98       70.00    
   5  -1000.0     -1000.0     -1000.0     -1000.0     -1000.0     -1000.0       70.00       70.00       70.00       70.00    
        70.00       70.00       70.00       70.00       70.00       70.00       70.00       70.00       70.00       70.00    
        69.99       69.97       69.96       69.95       69.93       69.92       69.91       69.89       69.88       69.87    
        69.86       69.85       69.84       69.84       69.83       69.83       69.83       69.83       69.83       69.84    
        69.85       69.86       69.87       69.89       69.90       69.92       69.94       69.96       69.98       70.00    
   6  -1000.0     -1000.0     -1000.0     -1000.0     -1000.0       70.00       70.00       70.00       70.00       70.00    
        70.00       70.00       70.00       70.00       70.00       70.00       70.00       70.00       70.00       70.00    
        69.99       69.97       69.96       69.94       69.93       69.91       69.90       69.89       69.87       69.86    
        69.85       69.84       69.83       69.82       69.82       69.81       69.81       69.81       69.82       69.82    
        69.83       69.84       69.86       69.88       69.89       69.91       69.93       69.96       69.98       70.00    
   7  -1000.0     -1000.0     -1000.0     -1000.0       70.00       70.00       70.00       70.00       70.00       70.00    
        70.00       70.00       70.00       70.00       70.00       70.00       70.00       70.00       70.00       70.00    
        69.98       69.97       69.95       69.94       69.92       69.91       69.89       69.88       69.86       69.85    
        69.84       69.83       69.82       69.81       69.80       69.80       69.79       69.79       69.80       69.80    
        69.81       69.83       69.84       69.86       69.88       69.90       69.93       69.95       69.97       70.00    
   8  -1000.0     -1000.0     -1000.0       70.00       70.00       70.00       70.00       70.00       70.00       70.00    
        70.00       70.00       70.00       70.00       70.00       70.00       70.00       70.00       70.00       70.00    
        69.98       69.97       69.95       69.93       69.92       69.90       69.88       69.87       69.85       69.84    
        69.82       69.81       69.80       69.79       69.78       69.77       69.77       69.77       69.77       69.78    
        69.79       69.81       69.82       69.84       69.87       69.89       69.92       69.94       69.97       70.00    
   9  -1000.0     -1000.0       70.00       70.00       70.00       70.00       70.00       70.00       70.00       70.00    
        70.00       70.00       70.00       70.00       70.00       70.00       70.00       70.00       70.00       70.00    
        69.98       69.96       69.95       69.93       69.91       69.89       69.87       69.86       69.84       69.82    
        69.80       69.79       69.77       69.76       69.75       69.74       69.74       69.74       69.74       69.75    
        69.76       69.78       69.80       69.82       69.85       69.88       69.91       69.94       69.97       70.00    
  10  -1000.0       70.00       70.00       70.00       70.00       70.00       70.00       70.00       70.00       70.00    
        70.00       70.00       70.00       70.00       70.00       70.00       70.00       70.00       70.00       70.00    
        69.98       69.96       69.94       69.92       69.90       69.88       69.86       69.84       69.82       69.80    
        69.78       69.76       69.75       69.73       69.72       69.71       69.70       69.70       69.70       69.71    
        69.73       69.75       69.77       69.80       69.83       69.86       69.89       69.93       69.96       70.00    
  11  -1000.0       70.00       70.00       70.00       70.00       70.00       70.00       70.00       70.00       70.00    
        70.00       70.00       70.00       70.00       70.00       70.00       70.00       70.00       70.00       70.00    
        69.98       69.96       69.94       69.92       69.90       69.87       69.85       69.83       69.80       69.78    
        69.76       69.74       69.71       69.69       69.68       69.66       69.66       69.65       69.66       69.67    
        69.68       69.71       69.73       69.77       69.80       69.84       69.88       69.92       69.96       70.00    
  12  -1000.0       70.00       70.00       70.00       70.00       70.00       70.00       70.00       70.00       70.00    
        70.00       70.00       70.00       70.00       70.00       70.00       70.00       70.00       70.00       70.00    
        69.98       69.96       69.93       69.91       69.89       69.86       69.84       69.81       69.78       69.76    
        69.73       69.70       69.68       69.65       69.63       69.61       69.60       69.60       69.60       69.61    
        69.63       69.66       69.69       69.73       69.77       69.81       69.86       69.90       69.95       70.00    
  13  -1000.0       70.00       70.00       70.00       70.00       70.00       70.00       70.00       70.00       70.00    
        70.00       70.00       70.00       70.00       69.99       70.00       70.00       70.00       70.00       70.00    
        69.98       69.95       69.93       69.90       69.88       69.85       69.82       69.79       69.76       69.73    
        69.70       69.67       69.63       69.60       69.58       69.55       69.54       69.53       69.53       69.54    
        69.57       69.60       69.64       69.68       69.73       69.78       69.84       69.89       69.95       70.00    
  14  -1000.0       70.00       70.00       70.00       70.00       70.00       70.00       70.00       70.00       70.00    
        70.00       70.00       70.00       70.00       70.00       70.00       70.00       70.00       70.00       70.00    
        69.97       69.95       69.92       69.90       69.87       69.84       69.81       69.77       69.74       69.70    
        69.66       69.63       69.59       69.55       69.51       69.48       69.46       69.45       69.45       69.46    
        69.49       69.53       69.58       69.63       69.69       69.75       69.81       69.88       69.94       70.00    
  15  -1000.0       70.00       70.00       70.00       70.00       70.00       70.00       70.00       70.00       70.00    
        70.00       70.00       70.00       70.00       70.00       70.00       70.00       70.00       70.00       70.00    
        69.97       69.95       69.92       69.89       69.86       69.83       69.79       69.76       69.72       69.67    
        69.63       69.58       69.53       69.48       69.44       69.39       69.36       69.34       69.34       69.36    
        69.40       69.45       69.51       69.57       69.64       69.72       69.79       69.86       69.93       70.00    
  16  -1000.0       70.00       70.00       70.00       70.00       70.00       70.00       70.00       70.00       70.00    
        70.00       70.00       70.00       70.00       70.00       70.00       70.00       70.00       70.00       70.00    
        69.97       69.94       69.91       69.88       69.85       69.81       69.78       69.74       69.69       69.64    
        69.59       69.53       69.47       69.41       69.35       69.29       69.24       69.22       69.21       69.23    
        69.28       69.35       69.42       69.51       69.59       69.68       69.76       69.84       69.92       70.00    
  17  -1000.0       70.00       70.00       70.00       70.00       70.00       70.00       70.00       70.00       70.00    
        70.00       70.00       70.00       70.00       70.00       70.00       70.00       70.00       70.00       70.00    
        69.97       69.94       69.91       69.88       69.84       69.80       69.76       69.72       69.67       69.61    
        69.55       69.48       69.41       69.33       69.25       69.17       69.10       69.05       69.04       69.07    
        69.14       69.23       69.33       69.43       69.54       69.64       69.73       69.82       69.91       70.00    
  18  -1000.0       70.00       70.00       70.00       70.00       70.00       70.00       70.00       70.00       70.00    
        70.00       70.00       70.00       70.00       70.00       70.00       70.00       70.00       70.00       70.00    
        69.97       69.94       69.90       69.87       69.83       69.79       69.75       69.70       69.65       69.58    
        69.52       69.44       69.35       69.25       69.14       69.03       68.93       68.85       68.82       68.87    
        68.97       69.09       69.22       69.35       69.48       69.59       69.70       69.80       69.90       70.00    
  19  -1000.0       70.00       70.00       70.00       70.00       70.00       70.00       70.00       70.00       70.00    
        70.00       70.00       70.00       70.00       70.00       70.00       70.00       70.00       70.00       70.00    
        69.97       69.94       69.90       69.87       69.83       69.78       69.74       69.69       69.63       69.56    
        69.48       69.39       69.29       69.17       69.03       68.87       68.71       68.58       68.52       68.60    
        68.75       68.94       69.11       69.28       69.42       69.55       69.68       69.79       69.90       70.00    
  20  -1000.0       70.00       70.00       70.00       70.00       70.00       70.00       70.00       70.00       70.00    
        70.00       70.00       70.00       70.00       70.00       70.00       70.00       70.00       70.00       70.00    
        69.97       69.93       69.90       69.86       69.82       69.78       69.73       69.67       69.61       69.54    
        69.46       69.36       69.24       69.09       68.92       68.71       68.46       68.21       68.05       68.23    
        68.50       68.77       69.01       69.20       69.37       69.52       69.65       69.78       69.89       70.00    
  21  -1000.0       70.00       70.00       70.00       70.00       70.00       70.00       70.00       70.00       70.00    
        70.00       70.00       70.00       70.00       70.00       70.00       70.00       70.00       70.00       70.00    
        69.97       69.93       69.90       69.86       69.82       69.77       69.72       69.67       69.60       69.53    
        69.44       69.33       69.20       69.04       68.83       68.57       68.20       67.72       67.23       67.75    
        68.24       68.63       68.92       69.15       69.34       69.50       69.64       69.77       69.89       70.00    
  22  -1000.0       70.00       70.00       70.00       70.00       70.00       70.00       70.00       70.00       70.00    
        70.00       70.00       70.00       70.00       70.00       70.00       70.00       70.00       70.00       70.00    
        69.97       69.93       69.90       69.86       69.82       69.77       69.72       69.67       69.60       69.52    
        69.43       69.32       69.19       69.02       68.80       68.50       68.04       67.22       65.37       67.25    
        68.08       68.56       68.89       69.13       69.33       69.49       69.64       69.76       69.88       70.00    
  23  -1000.0       70.00       70.00       70.00       70.00       70.00       70.00       70.00       70.00       70.00    
        70.00       70.00       70.00       70.00       70.00       70.00       70.00       70.00       70.00       70.00    
        69.97       69.93       69.90       69.86       69.82       69.77       69.72       69.67       69.60       69.53    
        69.44       69.33       69.20       69.04       68.84       68.57       68.20       67.73       67.23       67.75    
        68.25       68.63       68.92       69.15       69.34       69.50       69.64       69.77       69.89       70.00    
  24  -1000.0       70.00       70.00       70.00       70.00       70.00       70.00       70.00       70.00       70.00    
        70.00       70.00       70.00       70.00       70.00       70.00       70.00       70.00       70.00       70.00    
        69.97       69.93       69.90       69.86       69.82       69.78       69.73       69.68       69.61       69.54    
        69.46       69.36       69.24       69.10       68.92       68.71       68.47       68.21       68.06       68.23    
        68.51       68.77       69.01       69.20       69.37       69.52       69.65       69.78       69.89       70.00    
  25  -1000.0       70.00       70.00       70.00       70.00       70.00       70.00       70.00       70.00       70.00    
        70.00       70.00       70.00       70.00       70.00       70.00       70.00       70.00       70.00       70.00    
        69.97       69.94       69.90       69.87       69.83       69.79       69.74       69.69       69.63       69.56    
        69.48       69.40       69.29       69.17       69.03       68.88       68.72       68.58       68.52       68.60    
        68.76       68.94       69.11       69.28       69.42       69.56       69.68       69.79       69.90       70.00    
  26  -1000.0       70.00       70.00       70.00       70.00       70.00       70.00       70.00       70.00       70.00    
        70.00       70.00       70.00       70.00       70.00       70.00       70.00       70.00       70.00       70.00    
        69.97       69.94       69.91       69.87       69.83       69.80       69.75       69.70       69.65       69.59    
        69.52       69.44       69.35       69.25       69.15       69.04       68.93       68.85       68.83       68.87    
        68.97       69.09       69.23       69.36       69.48       69.59       69.70       69.81       69.90       70.00    
  27  -1000.0       70.00       70.00       70.00       70.00       70.00       70.00       70.00       70.00       70.00    
        70.00       70.00       70.00       70.00       70.00       70.00       70.00       70.00       70.00       70.00    
        69.97       69.94       69.91       69.88       69.84       69.81       69.77       69.72       69.67       69.62    
        69.56       69.49       69.42       69.34       69.26       69.18       69.11       69.06       69.05       69.08    
        69.14       69.23       69.33       69.44       69.54       69.64       69.73       69.82       69.91       70.00    
  28  -1000.0       70.00       70.00       70.00       70.00       70.00       70.00       70.00       70.00       70.00    
        70.00       70.00       70.00       70.00       70.00       70.00       70.00       70.00       70.00       70.00    
        69.97       69.94       69.91       69.88       69.85       69.82       69.78       69.74       69.70       69.65    
        69.60       69.54       69.48       69.42       69.36       69.30       69.25       69.22       69.22       69.24    
        69.29       69.35       69.43       69.51       69.60       69.68       69.76       69.84       69.92       70.00    
  29  -1000.0       70.00       70.00       70.00       70.00       70.00       70.00       70.00       70.00       70.00    
        70.00       70.00       70.00       70.00       70.00       70.00       70.00       70.00       70.00       70.00    
        69.97       69.95       69.92       69.89       69.86       69.83       69.80       69.76       69.72       69.68    
        69.64       69.59       69.54       69.49       69.44       69.40       69.37       69.35       69.35       69.37    
        69.40       69.45       69.51       69.58       69.65       69.72       69.79       69.86       69.93       70.00    
  30  -1000.0       70.00       70.00       70.00       70.00       70.00       70.00       70.00       70.00       70.00    
        70.00       70.00       70.00       70.00       70.00       70.00       70.00       70.00       70.00       70.00    
        69.98       69.95       69.93       69.90       69.87       69.84       69.81       69.78       69.75       69.71    
        69.67       69.63       69.59       69.56       69.52       69.49       69.47       69.45       69.46       69.47    
        69.50       69.54       69.59       69.64       69.70       69.76       69.82       69.88       69.94       70.00    
  31  -1000.0       70.00       70.00       70.00       70.00       70.00       70.00       70.00       70.00       70.00    
        70.00       70.00       70.00       70.00       70.00       70.00       70.00       70.00       70.00       70.00    
        69.98       69.95       69.93       69.91       69.88       69.86       69.83       69.80       69.77       69.74    
        69.71       69.68       69.64       69.61       69.59       69.56       69.55       69.54       69.54       69.55    
        69.58       69.61       69.65       69.69       69.74       69.79       69.84       69.89       69.95       70.00    
  32  -1000.0       70.00       70.00       70.00       70.00       70.00       70.00       70.00       70.00       70.00    
        70.00       70.00       70.00       70.00       70.00       70.00       70.00       70.00       70.00       70.00    
        69.98       69.96       69.94       69.92       69.89       69.87       69.85       69.82       69.79       69.77    
        69.74       69.71       69.69       69.66       69.64       69.63       69.61       69.61       69.61       69.62    
        69.64       69.67       69.70       69.74       69.78       69.82       69.86       69.91       69.95       70.00    
  33  -1000.0       70.00       70.00       70.00       70.00       70.00       70.00       70.00       70.00       70.00    
        70.00       70.00       70.00       70.00       70.00       70.00       70.00       70.00       70.00       70.00    
        69.98       69.96       69.94       69.92       69.90       69.88       69.86       69.84       69.82       69.79    
        69.77       69.75       69.73       69.71       69.69       69.68       69.67       69.67       69.67       69.68    
        69.70       69.72       69.74       69.77       69.81       69.84       69.88       69.92       69.96       70.00    
  34  -1000.0       70.00       70.00       70.00       70.00       70.00       70.00       70.00       70.00       70.00    
        70.00       70.00       70.00       70.00       70.00       70.00       70.00       70.00       70.00       70.00    
        69.98       69.97       69.95       69.93       69.91       69.89       69.87       69.86       69.84       69.82    
        69.80       69.78       69.76       69.75       69.73       69.72       69.72       69.72       69.72       69.73    
        69.74       69.76       69.78       69.81       69.84       69.87       69.90       69.93       69.97       70.00    
  35  -1000.0       70.00       70.00       70.00       70.00       70.00       70.00       70.00       70.00       70.00    
        70.00       70.00       70.00       70.00       70.00       70.00       70.00       70.00       70.00       70.00    
        69.98       69.97       69.95       69.94       69.92       69.90       69.89       69.87       69.85       69.84    
        69.82       69.81       69.79       69.78       69.77       69.76       69.76       69.76       69.76       69.77    
        69.78       69.80       69.81       69.84       69.86       69.89       69.91       69.94       69.97       70.00    
  36  -1000.0       70.00       70.00       70.00       70.00       70.00       70.00       70.00       70.00       70.00    
        70.00       70.00       70.00       70.00       70.00       70.00       70.00       70.00       70.00       70.00    
        69.99       69.97       69.96       69.94       69.93       69.91       69.90       69.89       69.87       69.86    
        69.84       69.83       69.82       69.81       69.80       69.80       69.79       69.79       69.80       69.80    
        69.81       69.83       69.84       69.86       69.88       69.90       69.93       69.95       69.97       70.00    
  37  -1000.0       70.00       70.00       70.00       70.00       70.00       70.00       70.00       70.00       70.00    
        70.00       70.00       70.00       70.00       70.00       70.00       70.00       70.00       70.00       70.00    
        69.99       69.97       69.96       69.95       69.94       69.92       69.91       69.90       69.89       69.87    
        69.86       69.85       69.84       69.83       69.83       69.82       69.82       69.82       69.83       69.83    
        69.84       69.85       69.86       69.88       69.90       69.92       69.94       69.96       69.98       70.00    
  38  -1000.0       70.00       70.00       70.00       70.00       70.00       70.00       70.00       70.00       70.00    
        70.00       70.00       70.00       70.00       70.00       70.00       70.00       70.00       70.00       70.00    
        69.99       69.98       69.97       69.95       69.94       69.93       69.92       69.91       69.90       69.89    
        69.88       69.87       69.86       69.86       69.85       69.85       69.85       69.85       69.85       69.85    
        69.86       69.87       69.88       69.90       69.91       69.93       69.94       69.96       69.98       70.00    
  39  -1000.0       70.00       70.00       70.00       70.00       70.00       70.00       70.00       70.00       70.00    
        70.00       70.00       70.00       70.00       70.00       70.00       70.00       70.00       70.00       70.00    
        69.99       69.98       69.97       69.96       69.95       69.94       69.93       69.92       69.91       69.90    
        69.89       69.89       69.88       69.87       69.87       69.87       69.87       69.87       69.87       69.87    
        69.88       69.89       69.90       69.91       69.92       69.94       69.95       69.97       69.98       70.00    
  40  -1000.0       70.00       70.00       70.00       70.00       70.00       70.00       70.00       70.00       70.00    
        70.00       70.00       70.00       70.00       70.00       70.00       70.00       70.00       70.00       70.00    
        69.99       69.98       69.97       69.96       69.95       69.94       69.94       69.93       69.92       69.91    
        69.91       69.90       69.89       69.89       69.89       69.88       69.88       69.88       69.89       69.89    
        69.90       69.90       69.91       69.92       69.93       69.95       69.96       69.97       69.99       70.00    
  41  -1000.0       70.00       70.00       70.00       70.00       70.00       70.00       70.00       70.00       70.00    
        70.00       70.00       70.00       70.00       70.00       70.00       70.00       70.00       70.00       70.00    
        69.99       69.98       69.97       69.97       69.96       69.95       69.94       69.94       69.93       69.92    
        69.92       69.91       69.91       69.90       69.90       69.90       69.90       69.90       69.90       69.91    
        69.91       69.92       69.92       69.93       69.94       69.95       69.96       69.98       69.99       70.00    
  42  -1000.0     -1000.0       70.00       70.00       70.00       70.00       70.00       70.00       70.00       70.00    
        70.00       70.00       70.00       70.00       70.00       70.00       70.00       70.00       70.00       70.00    
        69.99       69.98       69.98       69.97       69.96       69.96       69.95       69.94       69.94       69.93    
        69.92       69.92       69.92       69.91       69.91       69.91       69.91       69.91       69.91       69.92    
        69.92       69.93       69.93       69.94       69.95       69.96       69.97       69.98       69.99       70.00    
  43  -1000.0     -1000.0     -1000.0       70.00       70.00       70.00       70.00       70.00       70.00       70.00    
        70.00       70.00       70.00       70.00       70.00       70.00       70.00       70.00       70.00       70.00    
        69.99       69.99       69.98       69.97       69.97       69.96       69.95       69.95       69.94       69.94    
        69.93       69.93       69.93       69.92       69.92       69.92       69.92       69.92       69.92       69.93    
        69.93       69.94       69.94       69.95       69.96       69.96       69.97       69.98       69.99       70.00    
  44  -1000.0     -1000.0     -1000.0     -1000.0       70.00       70.00       70.00       70.00       70.00       70.00    
        70.00       70.00       70.00       70.00       70.00       70.00       70.00       70.00       70.00       70.00    
        69.99       69.99       69.98       69.97       69.97       69.96       69.96       69.95       69.95       69.94    
        69.94       69.94       69.93       69.93       69.93       69.93       69.93       69.93       69.93       69.93    
        69.94       69.94       69.95       69.95       69.96       69.97       69.98       69.98       69.99       70.00    
  45  -1000.0     -1000.0     -1000.0     -1000.0     -1000.0       70.00       70.00       70.00       70.00       70.00    
        70.00       70.00       70.00       70.00       70.00       70.00       70.00       70.00       70.00       70.00    
        69.99       69.99       69.98       69.98       69.97       69.97       69.96       69.96       69.95       69.95    
        69.94       69.94       69.94       69.94       69.94       69.93       69.93       69.94       69.94       69.94    
        69.94       69.95       69.95       69.96       69.96       69.97       69.98       69.98       69.99       70.00    
  46  -1000.0     -1000.0     -1000.0     -1000.0     -1000.0     -1000.0       70.00       70.00       70.00       70.00    
        70.00       70.00       70.00       70.00       70.00       70.00       70.00       70.00       70.00       70.00    
        69.99       69.99       69.98       69.98       69.97       69.97       69.96       69.96       69.95       69.95    
        69.95       69.94       69.94       69.94       69.94       69.94       69.94       69.94       69.94       69.95    
        69.95       69.95       69.96       69.96       69.97       69.97       69.98       69.99       69.99       70.00    
  47  -1000.0     -1000.0     -1000.0     -1000.0     -1000.0     -1000.0     -1000.0       70.00       70.00       70.00    
        70.00       70.00       70.00       70.00       70.00       70.00       70.00       70.00       70.00       70.00    
        69.99       69.99       69.98       69.98       69.97       69.97       69.97       69.96       69.96       69.95    
        69.95       69.95       69.95       69.94       69.94       69.94       69.94       69.94       69.95       69.95    
        69.95       69.96       69.96       69.96       69.97       69.97       69.98       69.99       69.99       70.00    
  48  -1000.0     -1000.0     -1000.0     -1000.0     -1000.0     -1000.0     -1000.0     -1000.0       70.00       70.00    
        70.00       70.00       70.00       70.00       70.00       70.00       70.00       70.00       70.00       70.00    
        69.99       69.99       69.98       69.98       69.98       69.97       69.97       69.96       69.96       69.96    
        69.95       69.95       69.95       69.95       69.95       69.95       69.95       69.95       69.95       69.95    
        69.95       69.96       69.96       69.97       69.97       69.98       69.98       69.99       69.99       70.00    
  49  -1000.0     -1000.0     -1000.0     -1000.0     -1000.0     -1000.0     -1000.0     -1000.0     -1000.0       70.00    
        70.00       70.00       70.00       70.00       70.00       70.00       70.00       70.00       70.00       70.00    
        70.00       69.99       69.99       69.98       69.98       69.97       69.97       69.96       69.96       69.96    
        69.95       69.95       69.95       69.95       69.95       69.95       69.95       69.95       69.95       69.95    
        69.95       69.96       69.96       69.97       69.97       69.98       69.98       69.99       69.99       70.00    
  50  -1000.0     -1000.0     -1000.0     -1000.0     -1000.0     -1000.0     -1000.0     -1000.0     -1000.0     -1000.0    
      -1000.0     -1000.0     -1000.0     -1000.0     -1000.0     -1000.0     -1000.0     -1000.0     -1000.0     -1000.0    
      -1000.0     -1000.0     -1000.0     -1000.0     -1000.0     -1000.0     -1000.0     -1000.0     -1000.0     -1000.0    
      -1000.0     -1000.0     -1000.0     -1000.0     -1000.0     -1000.0     -1000.0     -1000.0     -1000.0     -1000.0    
      -1000.0     -1000.0     -1000.0     -1000.0     -1000.0     -1000.0     -1000.0     -1000.0     -1000.0       70.00    

 HEAD WILL BE SAVED ON UNIT   51 AT END OF TIME STEP    1, STRESS PERIOD    1

 DRAWDOWN WILL BE SAVED ON UNIT   52 AT END OF TIME STEP    1, STRESS PERIOD    1
1
  VOLUMETRIC BUDGET FOR ENTIRE MODEL AT END OF TIME STEP    1, STRESS PERIOD   1
  ------------------------------------------------------------------------------

     CUMULATIVE VOLUMES      L**3       RATES FOR THIS TIME STEP      L**3/T
     ------------------                 ------------------------

           IN:                                      IN:
           ---                                      ---
             STORAGE =        5136.1289               STORAGE =        5136.1289
       CONSTANT HEAD =         484.5214         CONSTANT HEAD =         484.5214
               WELLS =         375.0000                 WELLS =         375.0000
       RIVER LEAKAGE =        6000.0000         RIVER LEAKAGE =        6000.0000
                  ET =           0.0000                    ET =           0.0000
            RECHARGE =       33199.9961              RECHARGE =       33199.9961

            TOTAL IN =       45195.6484              TOTAL IN =       45195.6484

          OUT:                                     OUT:
          ----                                     ----
             STORAGE =       39747.4766               STORAGE =       39747.4766
       CONSTANT HEAD =       5.9031E-02         CONSTANT HEAD =       5.9031E-02
               WELLS =        6000.0000                 WELLS =        6000.0000
       RIVER LEAKAGE =           0.0000         RIVER LEAKAGE =           0.0000
                  ET =          70.6014                    ET =          70.6014
            RECHARGE =           0.0000              RECHARGE =           0.0000

           TOTAL OUT =       45818.1367             TOTAL OUT =       45818.1367

            IN - OUT =        -622.4883              IN - OUT =        -622.4883

 PERCENT DISCREPANCY =          -1.37     PERCENT DISCREPANCY =          -1.37






         TIME SUMMARY AT END OF TIME STEP    1 IN STRESS PERIOD    1
                    SECONDS     MINUTES      HOURS       DAYS        YEARS
                    -----------------------------------------------------------
   TIME STEP LENGTH  86400.      1440.0      24.000      1.0000     2.73785E-03
 STRESS PERIOD TIME  86400.      1440.0      24.000      1.0000     2.73785E-03
         TOTAL TIME  86400.      1440.0      24.000      1.0000     2.73785E-03
1
1
                            STRESS PERIOD NO.    2, LENGTH =   1.000000    
                            -----------------------------------------------

                              NUMBER OF TIME STEPS =     1

                               MULTIPLIER FOR DELT =     1.000

                            INITIAL TIME STEP SIZE =   1.000000    

 WELL NO.  LAYER   ROW   COL   STRESS RATE         
 --------------------------------------------------
      1      3     22     39      -1500.    
      2      1     13     15      -4500.    
      3      1     25     26       375.0    

      3 WELLS

 REUSING NON-PARAMETER RIVER REACHES FROM LAST STRESS PERIOD

     49 RIVER REACHES

 REUSING SURF FROM LAST STRESS PERIOD



            EVAPOTRANSPIRATION RATE
 READING ON UNIT   22 WITH FORMAT: (50E15.6)           

 REUSING EXDP FROM LAST STRESS PERIOD



                           RECHARGE
 READING ON UNIT   19 WITH FORMAT: (50E15.6)           
 
 SOLVING FOR HEAD 

 NO OUTPUT CONTROL FOR STRESS PERIOD    2   TIME STEP    1
1
  VOLUMETRIC BUDGET FOR ENTIRE MODEL AT END OF TIME STEP    1, STRESS PERIOD   2
  ------------------------------------------------------------------------------

     CUMULATIVE VOLUMES      L**3       RATES FOR THIS TIME STEP      L**3/T
     ------------------                 ------------------------

           IN:                                      IN:
           ---                                      ---
             STORAGE =       10052.0527               STORAGE =        4915.9238
       CONSTANT HEAD =        1108.8511         CONSTANT HEAD =         624.3297
               WELLS =         750.0000                 WELLS =         375.0000
       RIVER LEAKAGE =       12000.0000         RIVER LEAKAGE =        6000.0000
                  ET =           0.0000                    ET =           0.0000
            RECHARGE =       66399.9922              RECHARGE =       33199.9961

            TOTAL IN =       90310.8984              TOTAL IN =       45115.2500

          OUT:                                     OUT:
          ----                                     ----
             STORAGE =       79766.9531               STORAGE =       40019.4766
       CONSTANT HEAD =           0.1712         CONSTANT HEAD =           0.1122
               WELLS =       12000.0000                 WELLS =        6000.0000
       RIVER LEAKAGE =           0.0000         RIVER LEAKAGE =           0.0000
                  ET =         141.2041                    ET =          70.6027
            RECHARGE =           0.0000              RECHARGE =           0.0000

           TOTAL OUT =       91908.3281             TOTAL OUT =       46090.1914

            IN - OUT =       -1597.4297              IN - OUT =        -974.9414

 PERCENT DISCREPANCY =          -1.75     PERCENT DISCREPANCY =          -2.14






         TIME SUMMARY AT END OF TIME STEP    1 IN STRESS PERIOD    2
                    SECONDS     MINUTES      HOURS       DAYS        YEARS
                    -----------------------------------------------------------
   TIME STEP LENGTH  86400.      1440.0      24.000      1.0000     2.73785E-03
 STRESS PERIOD TIME  86400.      1440.0      24.000      1.0000     2.73785E-03
         TOTAL TIME 1.72800E+05  2880.0      48.000      2.0000     5.47570E-03
1
1
                            STRESS PERIOD NO.    3, LENGTH =   1.000000    
                            -----------------------------------------------

                              NUMBER OF TIME STEPS =     1

                               MULTIPLIER FOR DELT =     1.000

                            INITIAL TIME STEP SIZE =   1.000000    

 WELL NO.  LAYER   ROW   COL   STRESS RATE         
 --------------------------------------------------
      1      3     22     39      -1500.    
      2      1     13     15      -4500.    
      3      1     25     26       375.0    

      3 WELLS

 REUSING NON-PARAMETER RIVER REACHES FROM LAST STRESS PERIOD

     49 RIVER REACHES

 REUSING SURF FROM LAST STRESS PERIOD



            EVAPOTRANSPIRATION RATE
 READING ON UNIT   22 WITH FORMAT: (50E15.6)           

 REUSING EXDP FROM LAST STRESS PERIOD



                           RECHARGE
 READING ON UNIT   19 WITH FORMAT: (50E15.6)           
 
 SOLVING FOR HEAD 

 NO OUTPUT CONTROL FOR STRESS PERIOD    3   TIME STEP    1
1
  VOLUMETRIC BUDGET FOR ENTIRE MODEL AT END OF TIME STEP    1, STRESS PERIOD   3
  ------------------------------------------------------------------------------

     CUMULATIVE VOLUMES      L**3       RATES FOR THIS TIME STEP      L**3/T
     ------------------                 ------------------------

           IN:                                      IN:
           ---                                      ---
             STORAGE =       14833.5830               STORAGE =        4781.5303
       CONSTANT HEAD =        1770.9623         CONSTANT HEAD =         662.1112
               WELLS =        1125.0000                 WELLS =         375.0000
       RIVER LEAKAGE =       18000.0000         RIVER LEAKAGE =        6000.0000
                  ET =           0.0000                    ET =           0.0000
            RECHARGE =       99599.9844              RECHARGE =       33199.9961

            TOTAL IN =      135329.5312              TOTAL IN =       45018.6367

          OUT:                                     OUT:
          ----                                     ----
             STORAGE =      119164.7969               STORAGE =       39397.8477
       CONSTANT HEAD =           0.3367         CONSTANT HEAD =           0.1655
               WELLS =       18000.0000                 WELLS =        6000.0000
       RIVER LEAKAGE =           0.0000         RIVER LEAKAGE =           0.0000
                  ET =         211.8081                    ET =          70.6040
            RECHARGE =           0.0000              RECHARGE =           0.0000

           TOTAL OUT =      137376.9375             TOTAL OUT =       45468.6172

            IN - OUT =       -2047.4062              IN - OUT =        -449.9805

 PERCENT DISCREPANCY =          -1.50     PERCENT DISCREPANCY =          -0.99






         TIME SUMMARY AT END OF TIME STEP    1 IN STRESS PERIOD    3
                    SECONDS     MINUTES      HOURS       DAYS        YEARS
                    -----------------------------------------------------------
   TIME STEP LENGTH  86400.      1440.0      24.000      1.0000     2.73785E-03
 STRESS PERIOD TIME  86400.      1440.0      24.000      1.0000     2.73785E-03
         TOTAL TIME 2.59200E+05  4320.0      72.000      3.0000     8.21355E-03
1
1
                            STRESS PERIOD NO.    4, LENGTH =   1.000000    
                            -----------------------------------------------

                              NUMBER OF TIME STEPS =     1

                               MULTIPLIER FOR DELT =     1.000

                            INITIAL TIME STEP SIZE =   1.000000    

 WELL NO.  LAYER   ROW   COL   STRESS RATE         
 --------------------------------------------------
      1      3     22     39      -1500.    
      2      1     13     15      -4500.    
      3      1     25     26       375.0    

      3 WELLS

 REUSING NON-PARAMETER RIVER REACHES FROM LAST STRESS PERIOD

     49 RIVER REACHES

 REUSING SURF FROM LAST STRESS PERIOD



            EVAPOTRANSPIRATION RATE
 READING ON UNIT   22 WITH FORMAT: (50E15.6)           

 REUSING EXDP FROM LAST STRESS PERIOD



                           RECHARGE
 READING ON UNIT   19 WITH FORMAT: (50E15.6)           
 
 SOLVING FOR HEAD 

 NO OUTPUT CONTROL FOR STRESS PERIOD    4   TIME STEP    1
1
  VOLUMETRIC BUDGET FOR ENTIRE MODEL AT END OF TIME STEP    1, STRESS PERIOD   4
  ------------------------------------------------------------------------------

     CUMULATIVE VOLUMES      L**3       RATES FOR THIS TIME STEP      L**3/T
     ------------------                 ------------------------

           IN:                                      IN:
           ---                                      ---
             STORAGE =       19544.8379               STORAGE =        4711.2544
       CONSTANT HEAD =        2443.8965         CONSTANT HEAD =         672.9341
               WELLS =        1500.0000                 WELLS =         375.0000
       RIVER LEAKAGE =       24000.0000         RIVER LEAKAGE =        6000.0000
                  ET =           0.0000                    ET =           0.0000
            RECHARGE =      132799.9844              RECHARGE =       33199.9961

            TOTAL IN =      180288.7188              TOTAL IN =       44959.1836

          OUT:                                     OUT:
          ----                                     ----
             STORAGE =      158517.6406               STORAGE =       39352.8477
       CONSTANT HEAD =           0.5537         CONSTANT HEAD =           0.2171
               WELLS =       24000.0000                 WELLS =        6000.0000
       RIVER LEAKAGE =           0.0000         RIVER LEAKAGE =           0.0000
                  ET =         282.4134                    ET =          70.6053
            RECHARGE =           0.0000              RECHARGE =           0.0000

           TOTAL OUT =      182800.5938             TOTAL OUT =       45423.6719

            IN - OUT =       -2511.8750              IN - OUT =        -464.4883

 PERCENT DISCREPANCY =          -1.38     PERCENT DISCREPANCY =          -1.03






         TIME SUMMARY AT END OF TIME STEP    1 IN STRESS PERIOD    4
                    SECONDS     MINUTES      HOURS       DAYS        YEARS
                    -----------------------------------------------------------
   TIME STEP LENGTH  86400.      1440.0      24.000      1.0000     2.73785E-03
 STRESS PERIOD TIME  86400.      1440.0      24.000      1.0000     2.73785E-03
         TOTAL TIME 3.45600E+05  5760.0      96.000      4.0000     1.09514E-02
1
1
                            STRESS PERIOD NO.    5, LENGTH =   1.000000    
                            -----------------------------------------------

                              NUMBER OF TIME STEPS =     1

                               MULTIPLIER FOR DELT =     1.000

                            INITIAL TIME STEP SIZE =   1.000000    

 WELL NO.  LAYER   ROW   COL   STRESS RATE         
 --------------------------------------------------
      1      3     22     39      -1500.    
      2      1     13     15      -4500.    
      3      1     25     26       375.0    

      3 WELLS

 REUSING NON-PARAMETER RIVER REACHES FROM LAST STRESS PERIOD

     49 RIVER REACHES

 REUSING SURF FROM LAST STRESS PERIOD



            EVAPOTRANSPIRATION RATE
 READING ON UNIT   22 WITH FORMAT: (50E15.6)           

 REUSING EXDP FROM LAST STRESS PERIOD



                           RECHARGE
 READING ON UNIT   19 WITH FORMAT: (50E15.6)           
 
 SOLVING FOR HEAD 

 NO OUTPUT CONTROL FOR STRESS PERIOD    5   TIME STEP    1
1
  VOLUMETRIC BUDGET FOR ENTIRE MODEL AT END OF TIME STEP    1, STRESS PERIOD   5
  ------------------------------------------------------------------------------

     CUMULATIVE VOLUMES      L**3       RATES FOR THIS TIME STEP      L**3/T
     ------------------                 ------------------------

           IN:                                      IN:
           ---                                      ---
             STORAGE =       24227.5977               STORAGE =        4682.7588
       CONSTANT HEAD =        3120.0544         CONSTANT HEAD =         676.1580
               WELLS =        1875.0000                 WELLS =         375.0000
       RIVER LEAKAGE =       30000.0000         RIVER LEAKAGE =        6000.0000
                  ET =           0.0000                    ET =           0.0000
            RECHARGE =      165999.9844              RECHARGE =       33199.9961

            TOTAL IN =      225222.6406              TOTAL IN =       44933.9141

          OUT:                                     OUT:
          ----                                     ----
             STORAGE =      196901.1094               STORAGE =       38383.4688
       CONSTANT HEAD =           0.8225         CONSTANT HEAD =           0.2687
               WELLS =       30000.0000                 WELLS =        6000.0000
       RIVER LEAKAGE =           0.0000         RIVER LEAKAGE =           0.0000
                  ET =         353.0200                    ET =          70.6066
            RECHARGE =           0.0000              RECHARGE =           0.0000

           TOTAL OUT =      227254.9531             TOTAL OUT =       44454.3438

            IN - OUT =       -2032.3125              IN - OUT =         479.5703

 PERCENT DISCREPANCY =          -0.90     PERCENT DISCREPANCY =           1.07






         TIME SUMMARY AT END OF TIME STEP    1 IN STRESS PERIOD    5
                    SECONDS     MINUTES      HOURS       DAYS        YEARS
                    -----------------------------------------------------------
   TIME STEP LENGTH  86400.      1440.0      24.000      1.0000     2.73785E-03
 STRESS PERIOD TIME  86400.      1440.0      24.000      1.0000     2.73785E-03
         TOTAL TIME 4.32000E+05  7200.0      120.00      5.0000     1.36893E-02
1
1
                            STRESS PERIOD NO.    6, LENGTH =   1.000000    
                            -----------------------------------------------

                              NUMBER OF TIME STEPS =     1

                               MULTIPLIER FOR DELT =     1.000

                            INITIAL TIME STEP SIZE =   1.000000    

 WELL NO.  LAYER   ROW   COL   STRESS RATE         
 --------------------------------------------------
      1      3     22     39      -1500.    
      2      1     13     15      -4500.    
      3      1     25     26       375.0    

      3 WELLS

 REUSING NON-PARAMETER RIVER REACHES FROM LAST STRESS PERIOD

     49 RIVER REACHES

 REUSING SURF FROM LAST STRESS PERIOD



            EVAPOTRANSPIRATION RATE
 READING ON UNIT   22 WITH FORMAT: (50E15.6)           

 REUSING EXDP FROM LAST STRESS PERIOD



                           RECHARGE
 READING ON UNIT   19 WITH FORMAT: (50E15.6)           
 
 SOLVING FOR HEAD 

 NO OUTPUT CONTROL FOR STRESS PERIOD    6   TIME STEP    1
1
  VOLUMETRIC BUDGET FOR ENTIRE MODEL AT END OF TIME STEP    1, STRESS PERIOD   6
  ------------------------------------------------------------------------------

     CUMULATIVE VOLUMES      L**3       RATES FOR THIS TIME STEP      L**3/T
     ------------------                 ------------------------

           IN:                                      IN:
           ---                                      ---
             STORAGE =       28876.1602               STORAGE =        4648.5625
       CONSTANT HEAD =        3797.1875         CONSTANT HEAD =         677.1331
               WELLS =        2250.0000                 WELLS =         375.0000
       RIVER LEAKAGE =       36000.0000         RIVER LEAKAGE =        6000.0000
                  ET =           0.0000                    ET =           0.0000
            RECHARGE =      199199.9844              RECHARGE =       33199.9961

            TOTAL IN =      270123.3125              TOTAL IN =       44900.6914

          OUT:                                     OUT:
          ----                                     ----
             STORAGE =      235685.3281               STORAGE =       38784.2188
       CONSTANT HEAD =           1.1445         CONSTANT HEAD =           0.3220
               WELLS =       36000.0000                 WELLS =        6000.0000
       RIVER LEAKAGE =           0.0000         RIVER LEAKAGE =           0.0000
                  ET =         423.6278                    ET =          70.6079
            RECHARGE =           0.0000              RECHARGE =           0.0000

           TOTAL OUT =      272110.0938             TOTAL OUT =       44855.1484

            IN - OUT =       -1986.7812              IN - OUT =          45.5430

 PERCENT DISCREPANCY =          -0.73     PERCENT DISCREPANCY =           0.10






         TIME SUMMARY AT END OF TIME STEP    1 IN STRESS PERIOD    6
                    SECONDS     MINUTES      HOURS       DAYS        YEARS
                    -----------------------------------------------------------
   TIME STEP LENGTH  86400.      1440.0      24.000      1.0000     2.73785E-03
 STRESS PERIOD TIME  86400.      1440.0      24.000      1.0000     2.73785E-03
         TOTAL TIME 5.18400E+05  8640.0      144.00      6.0000     1.64271E-02
1
1
                            STRESS PERIOD NO.    7, LENGTH =   1.000000    
                            -----------------------------------------------

                              NUMBER OF TIME STEPS =     1

                               MULTIPLIER FOR DELT =     1.000

                            INITIAL TIME STEP SIZE =   1.000000    

 WELL NO.  LAYER   ROW   COL   STRESS RATE         
 --------------------------------------------------
      1      3     22     39      -1500.    
      2      1     13     15      -4500.    
      3      1     25     26       375.0    

      3 WELLS

 REUSING NON-PARAMETER RIVER REACHES FROM LAST STRESS PERIOD

     49 RIVER REACHES

 REUSING SURF FROM LAST STRESS PERIOD



            EVAPOTRANSPIRATION RATE
 READING ON UNIT   22 WITH FORMAT: (50E15.6)           

 REUSING EXDP FROM LAST STRESS PERIOD



                           RECHARGE
 READING ON UNIT   19 WITH FORMAT: (50E15.6)           
 
 SOLVING FOR HEAD 

 NO OUTPUT CONTROL FOR STRESS PERIOD    7   TIME STEP    1
1
  VOLUMETRIC BUDGET FOR ENTIRE MODEL AT END OF TIME STEP    1, STRESS PERIOD   7
  ------------------------------------------------------------------------------

     CUMULATIVE VOLUMES      L**3       RATES FOR THIS TIME STEP      L**3/T
     ------------------                 ------------------------

           IN:                                      IN:
           ---                                      ---
             STORAGE =       33513.9062               STORAGE =        4637.7451
       CONSTANT HEAD =        4474.6147         CONSTANT HEAD =         677.4273
               WELLS =        2625.0000                 WELLS =         375.0000
       RIVER LEAKAGE =       42000.0000         RIVER LEAKAGE =        6000.0000
                  ET =           0.0000                    ET =           0.0000
            RECHARGE =      232399.9844              RECHARGE =       33199.9961

            TOTAL IN =      315013.5000              TOTAL IN =       44890.1680

          OUT:                                     OUT:
          ----                                     ----
             STORAGE =      274977.0625               STORAGE =       39291.7266
       CONSTANT HEAD =           1.5182         CONSTANT HEAD =           0.3737
               WELLS =       42000.0000                 WELLS =        6000.0000
       RIVER LEAKAGE =           0.0000         RIVER LEAKAGE =           0.0000
                  ET =         494.2370                    ET =          70.6092
            RECHARGE =           0.0000              RECHARGE =           0.0000

           TOTAL OUT =      317472.8438             TOTAL OUT =       45362.7109

            IN - OUT =       -2459.3438              IN - OUT =        -472.5430

 PERCENT DISCREPANCY =          -0.78     PERCENT DISCREPANCY =          -1.05






         TIME SUMMARY AT END OF TIME STEP    1 IN STRESS PERIOD    7
                    SECONDS     MINUTES      HOURS       DAYS        YEARS
                    -----------------------------------------------------------
   TIME STEP LENGTH  86400.      1440.0      24.000      1.0000     2.73785E-03
 STRESS PERIOD TIME  86400.      1440.0      24.000      1.0000     2.73785E-03
         TOTAL TIME 6.04800E+05  10080.      168.00      7.0000     1.91650E-02
1
1
                            STRESS PERIOD NO.    8, LENGTH =   1.000000    
                            -----------------------------------------------

                              NUMBER OF TIME STEPS =     1

                               MULTIPLIER FOR DELT =     1.000

                            INITIAL TIME STEP SIZE =   1.000000    

 WELL NO.  LAYER   ROW   COL   STRESS RATE         
 --------------------------------------------------
      1      3     22     39      -1500.    
      2      1     13     15      -4500.    
      3      1     25     26       375.0    

      3 WELLS

 REUSING NON-PARAMETER RIVER REACHES FROM LAST STRESS PERIOD

     49 RIVER REACHES

 REUSING SURF FROM LAST STRESS PERIOD



            EVAPOTRANSPIRATION RATE
 READING ON UNIT   22 WITH FORMAT: (50E15.6)           

 REUSING EXDP FROM LAST STRESS PERIOD



                           RECHARGE
 READING ON UNIT   19 WITH FORMAT: (50E15.6)           
 
 SOLVING FOR HEAD 

 NO OUTPUT CONTROL FOR STRESS PERIOD    8   TIME STEP    1
1
  VOLUMETRIC BUDGET FOR ENTIRE MODEL AT END OF TIME STEP    1, STRESS PERIOD   8
  ------------------------------------------------------------------------------

     CUMULATIVE VOLUMES      L**3       RATES FOR THIS TIME STEP      L**3/T
     ------------------                 ------------------------

           IN:                                      IN:
           ---                                      ---
             STORAGE =       38109.8242               STORAGE =        4595.9165
       CONSTANT HEAD =        5152.1279         CONSTANT HEAD =         677.5132
               WELLS =        3000.0000                 WELLS =         375.0000
       RIVER LEAKAGE =       48000.0000         RIVER LEAKAGE =        6000.0000
                  ET =           0.0000                    ET =           0.0000
            RECHARGE =      265599.9688              RECHARGE =       33199.9961

            TOTAL IN =      359861.9375              TOTAL IN =       44848.4258

          OUT:                                     OUT:
          ----                                     ----
             STORAGE =      314285.5312               STORAGE =       39308.4766
       CONSTANT HEAD =           1.9452         CONSTANT HEAD =           0.4270
               WELLS =       48000.0000                 WELLS =        6000.0000
       RIVER LEAKAGE =           0.0000         RIVER LEAKAGE =           0.0000
                  ET =         564.8475                    ET =          70.6105
            RECHARGE =           0.0000              RECHARGE =           0.0000

           TOTAL OUT =      362852.3125             TOTAL OUT =       45379.5117

            IN - OUT =       -2990.3750              IN - OUT =        -531.0859

 PERCENT DISCREPANCY =          -0.83     PERCENT DISCREPANCY =          -1.18






         TIME SUMMARY AT END OF TIME STEP    1 IN STRESS PERIOD    8
                    SECONDS     MINUTES      HOURS       DAYS        YEARS
                    -----------------------------------------------------------
   TIME STEP LENGTH  86400.      1440.0      24.000      1.0000     2.73785E-03
 STRESS PERIOD TIME  86400.      1440.0      24.000      1.0000     2.73785E-03
         TOTAL TIME 6.91200E+05  11520.      192.00      8.0000     2.19028E-02
1
1
                            STRESS PERIOD NO.    9, LENGTH =   1.000000    
                            -----------------------------------------------

                              NUMBER OF TIME STEPS =     1

                               MULTIPLIER FOR DELT =     1.000

                            INITIAL TIME STEP SIZE =   1.000000    

 WELL NO.  LAYER   ROW   COL   STRESS RATE         
 --------------------------------------------------
      1      3     22     39      -1500.    
      2      1     13     15      -4500.    
      3      1     25     26       375.0    

      3 WELLS

 REUSING NON-PARAMETER RIVER REACHES FROM LAST STRESS PERIOD

     49 RIVER REACHES

 REUSING SURF FROM LAST STRESS PERIOD



            EVAPOTRANSPIRATION RATE
 READING ON UNIT   22 WITH FORMAT: (50E15.6)           

 REUSING EXDP FROM LAST STRESS PERIOD



                           RECHARGE
 READING ON UNIT   19 WITH FORMAT: (50E15.6)           
 
 SOLVING FOR HEAD 

 NO OUTPUT CONTROL FOR STRESS PERIOD    9   TIME STEP    1
1
  VOLUMETRIC BUDGET FOR ENTIRE MODEL AT END OF TIME STEP    1, STRESS PERIOD   9
  ------------------------------------------------------------------------------

     CUMULATIVE VOLUMES      L**3       RATES FOR THIS TIME STEP      L**3/T
     ------------------                 ------------------------

           IN:                                      IN:
           ---                                      ---
             STORAGE =       42734.6406               STORAGE =        4624.8179
       CONSTANT HEAD =        5829.6631         CONSTANT HEAD =         677.5349
               WELLS =        3375.0000                 WELLS =         375.0000
       RIVER LEAKAGE =       54000.0000         RIVER LEAKAGE =        6000.0000
                  ET =           0.0000                    ET =           0.0000
            RECHARGE =      298799.9688              RECHARGE =       33199.9961

            TOTAL IN =      404739.2812              TOTAL IN =       44877.3477

          OUT:                                     OUT:
          ----                                     ----
             STORAGE =      354044.5000               STORAGE =       39758.9844
       CONSTANT HEAD =           2.4238         CONSTANT HEAD =           0.4786
               WELLS =       54000.0000                 WELLS =        6000.0000
       RIVER LEAKAGE =           0.0000         RIVER LEAKAGE =           0.0000
                  ET =         635.4592                    ET =          70.6117
            RECHARGE =           0.0000              RECHARGE =           0.0000

           TOTAL OUT =      408682.4062             TOTAL OUT =       45830.0781

            IN - OUT =       -3943.1250              IN - OUT =        -952.7305

 PERCENT DISCREPANCY =          -0.97     PERCENT DISCREPANCY =          -2.10






         TIME SUMMARY AT END OF TIME STEP    1 IN STRESS PERIOD    9
                    SECONDS     MINUTES      HOURS       DAYS        YEARS
                    -----------------------------------------------------------
   TIME STEP LENGTH  86400.      1440.0      24.000      1.0000     2.73785E-03
 STRESS PERIOD TIME  86400.      1440.0      24.000      1.0000     2.73785E-03
         TOTAL TIME 7.77600E+05  12960.      216.00      9.0000     2.46407E-02
1
1
                            STRESS PERIOD NO.   10, LENGTH =   1.000000    
                            -----------------------------------------------

                              NUMBER OF TIME STEPS =     1

                               MULTIPLIER FOR DELT =     1.000

                            INITIAL TIME STEP SIZE =   1.000000    

 WELL NO.  LAYER   ROW   COL   STRESS RATE         
 --------------------------------------------------
      1      3     22     39      -1500.    
      2      1     13     15      -4500.    
      3      1     25     26       375.0    

      3 WELLS

 REUSING NON-PARAMETER RIVER REACHES FROM LAST STRESS PERIOD

     49 RIVER REACHES

 REUSING SURF FROM LAST STRESS PERIOD



            EVAPOTRANSPIRATION RATE
 READING ON UNIT   22 WITH FORMAT: (50E15.6)           

 REUSING EXDP FROM LAST STRESS PERIOD



                           RECHARGE
 READING ON UNIT   19 WITH FORMAT: (50E15.6)           
 
 SOLVING FOR HEAD 

 NO OUTPUT CONTROL FOR STRESS PERIOD   10   TIME STEP    1
1
  VOLUMETRIC BUDGET FOR ENTIRE MODEL AT END OF TIME STEP    1, STRESS PERIOD  10
  ------------------------------------------------------------------------------

     CUMULATIVE VOLUMES      L**3       RATES FOR THIS TIME STEP      L**3/T
     ------------------                 ------------------------

           IN:                                      IN:
           ---                                      ---
             STORAGE =       47326.6836               STORAGE =        4592.0425
       CONSTANT HEAD =        6507.1997         CONSTANT HEAD =         677.5368
               WELLS =        3750.0000                 WELLS =         375.0000
       RIVER LEAKAGE =       60000.0000         RIVER LEAKAGE =        6000.0000
                  ET =           0.0000                    ET =           0.0000
            RECHARGE =      331999.9688              RECHARGE =       33199.9961

            TOTAL IN =      449583.8438              TOTAL IN =       44844.5742

          OUT:                                     OUT:
          ----                                     ----
             STORAGE =      393161.0000               STORAGE =       39116.4844
       CONSTANT HEAD =           2.9558         CONSTANT HEAD =           0.5320
               WELLS =       60000.0000                 WELLS =        6000.0000
       RIVER LEAKAGE =           0.0000         RIVER LEAKAGE =           0.0000
                  ET =         706.0723                    ET =          70.6130
            RECHARGE =           0.0000              RECHARGE =           0.0000

           TOTAL OUT =      453870.0312             TOTAL OUT =       45187.6289

            IN - OUT =       -4286.1875              IN - OUT =        -343.0547

 PERCENT DISCREPANCY =          -0.95     PERCENT DISCREPANCY =          -0.76






         TIME SUMMARY AT END OF TIME STEP    1 IN STRESS PERIOD   10
                    SECONDS     MINUTES      HOURS       DAYS        YEARS
                    -----------------------------------------------------------
   TIME STEP LENGTH  86400.      1440.0      24.000      1.0000     2.73785E-03
 STRESS PERIOD TIME  86400.      1440.0      24.000      1.0000     2.73785E-03
         TOTAL TIME 8.64000E+05  14400.      240.00      10.000     2.73785E-02
1
1
                            STRESS PERIOD NO.   11, LENGTH =   1.000000    
                            -----------------------------------------------

                              NUMBER OF TIME STEPS =     1

                               MULTIPLIER FOR DELT =     1.000

                            INITIAL TIME STEP SIZE =   1.000000    

 WELL NO.  LAYER   ROW   COL   STRESS RATE         
 --------------------------------------------------
      1      3     22     39      -1500.    
      2      1     13     15      -4500.    
      3      1     25     26       375.0    

      3 WELLS

 REUSING NON-PARAMETER RIVER REACHES FROM LAST STRESS PERIOD

     49 RIVER REACHES

 REUSING SURF FROM LAST STRESS PERIOD



            EVAPOTRANSPIRATION RATE
 READING ON UNIT   22 WITH FORMAT: (50E15.6)           

 REUSING EXDP FROM LAST STRESS PERIOD



                           RECHARGE
 READING ON UNIT   19 WITH FORMAT: (50E15.6)           
 
 SOLVING FOR HEAD 

 NO OUTPUT CONTROL FOR STRESS PERIOD   11   TIME STEP    1
1
  VOLUMETRIC BUDGET FOR ENTIRE MODEL AT END OF TIME STEP    1, STRESS PERIOD  11
  ------------------------------------------------------------------------------

     CUMULATIVE VOLUMES      L**3       RATES FOR THIS TIME STEP      L**3/T
     ------------------                 ------------------------

           IN:                                      IN:
           ---                                      ---
             STORAGE =       51914.7188               STORAGE =        4588.0366
       CONSTANT HEAD =        7184.7324         CONSTANT HEAD =         677.5328
               WELLS =        4125.0000                 WELLS =         375.0000
       RIVER LEAKAGE =       66000.0000         RIVER LEAKAGE =        6000.0000
                  ET =           0.0000                    ET =           0.0000
            RECHARGE =      365199.9688              RECHARGE =       33199.9961

            TOTAL IN =      494424.4375              TOTAL IN =       44840.5664

          OUT:                                     OUT:
          ----                                     ----
             STORAGE =      432371.1250               STORAGE =       39210.1172
       CONSTANT HEAD =           3.5394         CONSTANT HEAD =           0.5836
               WELLS =       66000.0000                 WELLS =        6000.0000
       RIVER LEAKAGE =           0.0000         RIVER LEAKAGE =           0.0000
                  ET =         776.6866                    ET =          70.6143
            RECHARGE =           0.0000              RECHARGE =           0.0000

           TOTAL OUT =      499151.3438             TOTAL OUT =       45281.3125

            IN - OUT =       -4726.9062              IN - OUT =        -440.7461

 PERCENT DISCREPANCY =          -0.95     PERCENT DISCREPANCY =          -0.98






         TIME SUMMARY AT END OF TIME STEP    1 IN STRESS PERIOD   11
                    SECONDS     MINUTES      HOURS       DAYS        YEARS
                    -----------------------------------------------------------
   TIME STEP LENGTH  86400.      1440.0      24.000      1.0000     2.73785E-03
 STRESS PERIOD TIME  86400.      1440.0      24.000      1.0000     2.73785E-03
         TOTAL TIME 9.50400E+05  15840.      264.00      11.000     3.01164E-02
1
1
                            STRESS PERIOD NO.   12, LENGTH =   1.000000    
                            -----------------------------------------------

                              NUMBER OF TIME STEPS =     1

                               MULTIPLIER FOR DELT =     1.000

                            INITIAL TIME STEP SIZE =   1.000000    

 WELL NO.  LAYER   ROW   COL   STRESS RATE         
 --------------------------------------------------
      1      3     22     39      -1500.    
      2      1     13     15      -4500.    
      3      1     25     26       375.0    

      3 WELLS

 REUSING NON-PARAMETER RIVER REACHES FROM LAST STRESS PERIOD

     49 RIVER REACHES

 REUSING SURF FROM LAST STRESS PERIOD



            EVAPOTRANSPIRATION RATE
 READING ON UNIT   22 WITH FORMAT: (50E15.6)           

 REUSING EXDP FROM LAST STRESS PERIOD



                           RECHARGE
 READING ON UNIT   19 WITH FORMAT: (50E15.6)           
 
 SOLVING FOR HEAD 

 NO OUTPUT CONTROL FOR STRESS PERIOD   12   TIME STEP    1
1
  VOLUMETRIC BUDGET FOR ENTIRE MODEL AT END OF TIME STEP    1, STRESS PERIOD  12
  ------------------------------------------------------------------------------

     CUMULATIVE VOLUMES      L**3       RATES FOR THIS TIME STEP      L**3/T
     ------------------                 ------------------------

           IN:                                      IN:
           ---                                      ---
             STORAGE =       56487.2539               STORAGE =        4572.5342
       CONSTANT HEAD =        7862.2593         CONSTANT HEAD =         677.5267
               WELLS =        4500.0000                 WELLS =         375.0000
       RIVER LEAKAGE =       72000.0000         RIVER LEAKAGE =        6000.0000
                  ET =           0.0000                    ET =           0.0000
            RECHARGE =      398399.9688              RECHARGE =       33199.9961

            TOTAL IN =      539249.5000              TOTAL IN =       44825.0547

          OUT:                                     OUT:
          ----                                     ----
             STORAGE =      470738.1250               STORAGE =       38366.9883
       CONSTANT HEAD =           4.1747         CONSTANT HEAD =           0.6353
               WELLS =       72000.0000                 WELLS =        6000.0000
       RIVER LEAKAGE =           0.0000         RIVER LEAKAGE =           0.0000
                  ET =         847.3022                    ET =          70.6156
            RECHARGE =           0.0000              RECHARGE =           0.0000

           TOTAL OUT =      543589.6250             TOTAL OUT =       44438.2422

            IN - OUT =       -4340.1250              IN - OUT =         386.8125

 PERCENT DISCREPANCY =          -0.80     PERCENT DISCREPANCY =           0.87






         TIME SUMMARY AT END OF TIME STEP    1 IN STRESS PERIOD   12
                    SECONDS     MINUTES      HOURS       DAYS        YEARS
                    -----------------------------------------------------------
   TIME STEP LENGTH  86400.      1440.0      24.000      1.0000     2.73785E-03
 STRESS PERIOD TIME  86400.      1440.0      24.000      1.0000     2.73785E-03
         TOTAL TIME 1.03680E+06  17280.      288.00      12.000     3.28542E-02
1
1
                            STRESS PERIOD NO.   13, LENGTH =   1.000000    
                            -----------------------------------------------

                              NUMBER OF TIME STEPS =     1

                               MULTIPLIER FOR DELT =     1.000

                            INITIAL TIME STEP SIZE =   1.000000    

 WELL NO.  LAYER   ROW   COL   STRESS RATE         
 --------------------------------------------------
      1      3     22     39      -1500.    
      2      1     13     15      -4500.    
      3      1     25     26       375.0    

      3 WELLS

 REUSING NON-PARAMETER RIVER REACHES FROM LAST STRESS PERIOD

     49 RIVER REACHES

 REUSING SURF FROM LAST STRESS PERIOD



            EVAPOTRANSPIRATION RATE
 READING ON UNIT   22 WITH FORMAT: (50E15.6)           

 REUSING EXDP FROM LAST STRESS PERIOD



                           RECHARGE
 READING ON UNIT   19 WITH FORMAT: (50E15.6)           
 
 SOLVING FOR HEAD 

 NO OUTPUT CONTROL FOR STRESS PERIOD   13   TIME STEP    1
1
  VOLUMETRIC BUDGET FOR ENTIRE MODEL AT END OF TIME STEP    1, STRESS PERIOD  13
  ------------------------------------------------------------------------------

     CUMULATIVE VOLUMES      L**3       RATES FOR THIS TIME STEP      L**3/T
     ------------------                 ------------------------

           IN:                                      IN:
           ---                                      ---
             STORAGE =       61068.0391               STORAGE =        4580.7842
       CONSTANT HEAD =        8539.7793         CONSTANT HEAD =         677.5200
               WELLS =        4875.0000                 WELLS =         375.0000
       RIVER LEAKAGE =       78000.0000         RIVER LEAKAGE =        6000.0000
                  ET =           0.0000                    ET =           0.0000
            RECHARGE =      431599.9688              RECHARGE =       33199.9961

            TOTAL IN =      584082.7500              TOTAL IN =       44833.3008

          OUT:                                     OUT:
          ----                                     ----
             STORAGE =      509057.7500               STORAGE =       38319.6133
       CONSTANT HEAD =           4.8616         CONSTANT HEAD =           0.6869
               WELLS =       78000.0000                 WELLS =        6000.0000
       RIVER LEAKAGE =           0.0000         RIVER LEAKAGE =           0.0000
                  ET =         917.9191                    ET =          70.6169
            RECHARGE =           0.0000              RECHARGE =           0.0000

           TOTAL OUT =      587980.5625             TOTAL OUT =       44390.9180

            IN - OUT =       -3897.8125              IN - OUT =         442.3828

 PERCENT DISCREPANCY =          -0.67     PERCENT DISCREPANCY =           0.99






         TIME SUMMARY AT END OF TIME STEP    1 IN STRESS PERIOD   13
                    SECONDS     MINUTES      HOURS       DAYS        YEARS
                    -----------------------------------------------------------
   TIME STEP LENGTH  86400.      1440.0      24.000      1.0000     2.73785E-03
 STRESS PERIOD TIME  86400.      1440.0      24.000      1.0000     2.73785E-03
         TOTAL TIME 1.12320E+06  18720.      312.00      13.000     3.55921E-02
1
1
                            STRESS PERIOD NO.   14, LENGTH =   1.000000    
                            -----------------------------------------------

                              NUMBER OF TIME STEPS =     1

                               MULTIPLIER FOR DELT =     1.000

                            INITIAL TIME STEP SIZE =   1.000000    

 WELL NO.  LAYER   ROW   COL   STRESS RATE         
 --------------------------------------------------
      1      3     22     39      -1500.    
      2      1     13     15      -4500.    
      3      1     25     26       375.0    

      3 WELLS

 REUSING NON-PARAMETER RIVER REACHES FROM LAST STRESS PERIOD

     49 RIVER REACHES

 REUSING SURF FROM LAST STRESS PERIOD



            EVAPOTRANSPIRATION RATE
 READING ON UNIT   22 WITH FORMAT: (50E15.6)           

 REUSING EXDP FROM LAST STRESS PERIOD



                           RECHARGE
 READING ON UNIT   19 WITH FORMAT: (50E15.6)           
 
 SOLVING FOR HEAD 

 NO OUTPUT CONTROL FOR STRESS PERIOD   14   TIME STEP    1
1
  VOLUMETRIC BUDGET FOR ENTIRE MODEL AT END OF TIME STEP    1, STRESS PERIOD  14
  ------------------------------------------------------------------------------

     CUMULATIVE VOLUMES      L**3       RATES FOR THIS TIME STEP      L**3/T
     ------------------                 ------------------------

           IN:                                      IN:
           ---                                      ---
             STORAGE =       65640.0703               STORAGE =        4572.0342
       CONSTANT HEAD =        9217.2920         CONSTANT HEAD =         677.5131
               WELLS =        5250.0000                 WELLS =         375.0000
       RIVER LEAKAGE =       84000.0000         RIVER LEAKAGE =        6000.0000
                  ET =           0.0000                    ET =           0.0000
            RECHARGE =      464799.9688              RECHARGE =       33199.9961

            TOTAL IN =      628907.3125              TOTAL IN =       44824.5430

          OUT:                                     OUT:
          ----                                     ----
             STORAGE =      547818.2500               STORAGE =       38760.4883
       CONSTANT HEAD =           5.6002         CONSTANT HEAD =           0.7386
               WELLS =       84000.0000                 WELLS =        6000.0000
       RIVER LEAKAGE =           0.0000         RIVER LEAKAGE =           0.0000
                  ET =         988.5372                    ET =          70.6182
            RECHARGE =           0.0000              RECHARGE =           0.0000

           TOTAL OUT =      632812.4375             TOTAL OUT =       44831.8438

            IN - OUT =       -3905.1250              IN - OUT =          -7.3008

 PERCENT DISCREPANCY =          -0.62     PERCENT DISCREPANCY =          -0.02






         TIME SUMMARY AT END OF TIME STEP    1 IN STRESS PERIOD   14
                    SECONDS     MINUTES      HOURS       DAYS        YEARS
                    -----------------------------------------------------------
   TIME STEP LENGTH  86400.      1440.0      24.000      1.0000     2.73785E-03
 STRESS PERIOD TIME  86400.      1440.0      24.000      1.0000     2.73785E-03
         TOTAL TIME 1.20960E+06  20160.      336.00      14.000     3.83299E-02
1
1
                            STRESS PERIOD NO.   15, LENGTH =   1.000000    
                            -----------------------------------------------

                              NUMBER OF TIME STEPS =     1

                               MULTIPLIER FOR DELT =     1.000

                            INITIAL TIME STEP SIZE =   1.000000    

 WELL NO.  LAYER   ROW   COL   STRESS RATE         
 --------------------------------------------------
      1      3     22     39      -1500.    
      2      1     13     15      -4500.    
      3      1     25     26       375.0    

      3 WELLS

 REUSING NON-PARAMETER RIVER REACHES FROM LAST STRESS PERIOD

     49 RIVER REACHES

 REUSING SURF FROM LAST STRESS PERIOD



            EVAPOTRANSPIRATION RATE
 READING ON UNIT   22 WITH FORMAT: (50E15.6)           

 REUSING EXDP FROM LAST STRESS PERIOD



                           RECHARGE
 READING ON UNIT   19 WITH FORMAT: (50E15.6)           
 
 SOLVING FOR HEAD 

 NO OUTPUT CONTROL FOR STRESS PERIOD   15   TIME STEP    1
1
  VOLUMETRIC BUDGET FOR ENTIRE MODEL AT END OF TIME STEP    1, STRESS PERIOD  15
  ------------------------------------------------------------------------------

     CUMULATIVE VOLUMES      L**3       RATES FOR THIS TIME STEP      L**3/T
     ------------------                 ------------------------

           IN:                                      IN:
           ---                                      ---
             STORAGE =       70217.3516               STORAGE =        4577.2837
       CONSTANT HEAD =        9894.7979         CONSTANT HEAD =         677.5061
               WELLS =        5625.0000                 WELLS =         375.0000
       RIVER LEAKAGE =       90000.0000         RIVER LEAKAGE =        6000.0000
                  ET =           0.0000                    ET =           0.0000
            RECHARGE =      497999.9688              RECHARGE =       33199.9961

            TOTAL IN =      673737.1250              TOTAL IN =       44829.7852

          OUT:                                     OUT:
          ----                                     ----
             STORAGE =      587118.1250               STORAGE =       39299.8672
       CONSTANT HEAD =           6.3904         CONSTANT HEAD =           0.7902
               WELLS =       90000.0000                 WELLS =        6000.0000
       RIVER LEAKAGE =           0.0000         RIVER LEAKAGE =           0.0000
                  ET =        1059.1567                    ET =          70.6195
            RECHARGE =           0.0000              RECHARGE =           0.0000

           TOTAL OUT =      678183.6875             TOTAL OUT =       45371.2773

            IN - OUT =       -4446.5625              IN - OUT =        -541.4922

 PERCENT DISCREPANCY =          -0.66     PERCENT DISCREPANCY =          -1.20






         TIME SUMMARY AT END OF TIME STEP    1 IN STRESS PERIOD   15
                    SECONDS     MINUTES      HOURS       DAYS        YEARS
                    -----------------------------------------------------------
   TIME STEP LENGTH  86400.      1440.0      24.000      1.0000     2.73785E-03
 STRESS PERIOD TIME  86400.      1440.0      24.000      1.0000     2.73785E-03
         TOTAL TIME 1.29600E+06  21600.      360.00      15.000     4.10678E-02
1
1
                            STRESS PERIOD NO.   16, LENGTH =   1.000000    
                            -----------------------------------------------

                              NUMBER OF TIME STEPS =     1

                               MULTIPLIER FOR DELT =     1.000

                            INITIAL TIME STEP SIZE =   1.000000    

 WELL NO.  LAYER   ROW   COL   STRESS RATE         
 --------------------------------------------------
      1      3     22     39      -1500.    
      2      1     13     15      -4500.    
      3      1     25     26       375.0    

      3 WELLS

 REUSING NON-PARAMETER RIVER REACHES FROM LAST STRESS PERIOD

     49 RIVER REACHES

 REUSING SURF FROM LAST STRESS PERIOD



            EVAPOTRANSPIRATION RATE
 READING ON UNIT   22 WITH FORMAT: (50E15.6)           

 REUSING EXDP FROM LAST STRESS PERIOD



                           RECHARGE
 READING ON UNIT   19 WITH FORMAT: (50E15.6)           
 
 SOLVING FOR HEAD 

 NO OUTPUT CONTROL FOR STRESS PERIOD   16   TIME STEP    1
1
  VOLUMETRIC BUDGET FOR ENTIRE MODEL AT END OF TIME STEP    1, STRESS PERIOD  16
  ------------------------------------------------------------------------------

     CUMULATIVE VOLUMES      L**3       RATES FOR THIS TIME STEP      L**3/T
     ------------------                 ------------------------

           IN:                                      IN:
           ---                                      ---
             STORAGE =       74790.3828               STORAGE =        4573.0347
       CONSTANT HEAD =       10572.2969         CONSTANT HEAD =         677.4992
               WELLS =        6000.0000                 WELLS =         375.0000
       RIVER LEAKAGE =       96000.0000         RIVER LEAKAGE =        6000.0000
                  ET =           0.0000                    ET =           0.0000
            RECHARGE =      531199.9375              RECHARGE =       33199.9961

            TOTAL IN =      718562.6250              TOTAL IN =       44825.5312

          OUT:                                     OUT:
          ----                                     ----
             STORAGE =      626199.2500               STORAGE =       39081.1172
       CONSTANT HEAD =           7.2323         CONSTANT HEAD =           0.8419
               WELLS =       96000.0000                 WELLS =        6000.0000
       RIVER LEAKAGE =           0.0000         RIVER LEAKAGE =           0.0000
                  ET =        1129.7775                    ET =          70.6208
            RECHARGE =           0.0000              RECHARGE =           0.0000

           TOTAL OUT =      723336.2500             TOTAL OUT =       45152.5820

            IN - OUT =       -4773.6250              IN - OUT =        -327.0508

 PERCENT DISCREPANCY =          -0.66     PERCENT DISCREPANCY =          -0.73






         TIME SUMMARY AT END OF TIME STEP    1 IN STRESS PERIOD   16
                    SECONDS     MINUTES      HOURS       DAYS        YEARS
                    -----------------------------------------------------------
   TIME STEP LENGTH  86400.      1440.0      24.000      1.0000     2.73785E-03
 STRESS PERIOD TIME  86400.      1440.0      24.000      1.0000     2.73785E-03
         TOTAL TIME 1.38240E+06  23040.      384.00      16.000     4.38056E-02
1
1
                            STRESS PERIOD NO.   17, LENGTH =   1.000000    
                            -----------------------------------------------

                              NUMBER OF TIME STEPS =     1

                               MULTIPLIER FOR DELT =     1.000

                            INITIAL TIME STEP SIZE =   1.000000    

 WELL NO.  LAYER   ROW   COL   STRESS RATE         
 --------------------------------------------------
      1      3     22     39      -1500.    
      2      1     13     15      -4500.    
      3      1     25     26       375.0    

      3 WELLS

 REUSING NON-PARAMETER RIVER REACHES FROM LAST STRESS PERIOD

     49 RIVER REACHES

 REUSING SURF FROM LAST STRESS PERIOD



            EVAPOTRANSPIRATION RATE
 READING ON UNIT   22 WITH FORMAT: (50E15.6)           

 REUSING EXDP FROM LAST STRESS PERIOD



                           RECHARGE
 READING ON UNIT   19 WITH FORMAT: (50E15.6)           
 
 SOLVING FOR HEAD 

 NO OUTPUT CONTROL FOR STRESS PERIOD   17   TIME STEP    1
1
  VOLUMETRIC BUDGET FOR ENTIRE MODEL AT END OF TIME STEP    1, STRESS PERIOD  17
  ------------------------------------------------------------------------------

     CUMULATIVE VOLUMES      L**3       RATES FOR THIS TIME STEP      L**3/T
     ------------------                 ------------------------

           IN:                                      IN:
           ---                                      ---
             STORAGE =       79345.9141               STORAGE =        4555.5342
       CONSTANT HEAD =       11249.7891         CONSTANT HEAD =         677.4923
               WELLS =        6375.0000                 WELLS =         375.0000
       RIVER LEAKAGE =      102000.0000         RIVER LEAKAGE =        6000.0000
                  ET =           0.0000                    ET =           0.0000
            RECHARGE =      564399.9375              RECHARGE =       33199.9961

            TOTAL IN =      763370.6250              TOTAL IN =       44808.0234

          OUT:                                     OUT:
          ----                                     ----
             STORAGE =      665658.0000               STORAGE =       39458.7422
       CONSTANT HEAD =           8.1259         CONSTANT HEAD =           0.8936
               WELLS =      102000.0000                 WELLS =        6000.0000
       RIVER LEAKAGE =           0.0000         RIVER LEAKAGE =           0.0000
                  ET =        1200.3995                    ET =          70.6220
            RECHARGE =           0.0000              RECHARGE =           0.0000

           TOTAL OUT =      768866.5000             TOTAL OUT =       45530.2578

            IN - OUT =       -5495.8750              IN - OUT =        -722.2344

 PERCENT DISCREPANCY =          -0.72     PERCENT DISCREPANCY =          -1.60






         TIME SUMMARY AT END OF TIME STEP    1 IN STRESS PERIOD   17
                    SECONDS     MINUTES      HOURS       DAYS        YEARS
                    -----------------------------------------------------------
   TIME STEP LENGTH  86400.      1440.0      24.000      1.0000     2.73785E-03
 STRESS PERIOD TIME  86400.      1440.0      24.000      1.0000     2.73785E-03
         TOTAL TIME 1.46880E+06  24480.      408.00      17.000     4.65435E-02
1
1
                            STRESS PERIOD NO.   18, LENGTH =   1.000000    
                            -----------------------------------------------

                              NUMBER OF TIME STEPS =     1

                               MULTIPLIER FOR DELT =     1.000

                            INITIAL TIME STEP SIZE =   1.000000    

 WELL NO.  LAYER   ROW   COL   STRESS RATE         
 --------------------------------------------------
      1      3     22     39      -1500.    
      2      1     13     15      -4500.    
      3      1     25     26       375.0    

      3 WELLS

 REUSING NON-PARAMETER RIVER REACHES FROM LAST STRESS PERIOD

     49 RIVER REACHES

 REUSING SURF FROM LAST STRESS PERIOD



            EVAPOTRANSPIRATION RATE
 READING ON UNIT   22 WITH FORMAT: (50E15.6)           

 REUSING EXDP FROM LAST STRESS PERIOD



                           RECHARGE
 READING ON UNIT   19 WITH FORMAT: (50E15.6)           
 
 SOLVING FOR HEAD 

 NO OUTPUT CONTROL FOR STRESS PERIOD   18   TIME STEP    1
1
  VOLUMETRIC BUDGET FOR ENTIRE MODEL AT END OF TIME STEP    1, STRESS PERIOD  18
  ------------------------------------------------------------------------------

     CUMULATIVE VOLUMES      L**3       RATES FOR THIS TIME STEP      L**3/T
     ------------------                 ------------------------

           IN:                                      IN:
           ---                                      ---
             STORAGE =       83908.1953               STORAGE =        4562.2832
       CONSTANT HEAD =       11927.2744         CONSTANT HEAD =         677.4853
               WELLS =        6750.0000                 WELLS =         375.0000
       RIVER LEAKAGE =      108000.0000         RIVER LEAKAGE =        6000.0000
                  ET =           0.0000                    ET =           0.0000
            RECHARGE =      597599.9375              RECHARGE =       33199.9961

            TOTAL IN =      808185.3750              TOTAL IN =       44814.7656

          OUT:                                     OUT:
          ----                                     ----
             STORAGE =      704710.3750               STORAGE =       39052.3672
       CONSTANT HEAD =           9.0711         CONSTANT HEAD =           0.9452
               WELLS =      108000.0000                 WELLS =        6000.0000
       RIVER LEAKAGE =           0.0000         RIVER LEAKAGE =           0.0000
                  ET =        1271.0228                    ET =          70.6233
            RECHARGE =           0.0000              RECHARGE =           0.0000

           TOTAL OUT =      813990.4375             TOTAL OUT =       45123.9375

            IN - OUT =       -5805.0625              IN - OUT =        -309.1719

 PERCENT DISCREPANCY =          -0.72     PERCENT DISCREPANCY =          -0.69






         TIME SUMMARY AT END OF TIME STEP    1 IN STRESS PERIOD   18
                    SECONDS     MINUTES      HOURS       DAYS        YEARS
                    -----------------------------------------------------------
   TIME STEP LENGTH  86400.      1440.0      24.000      1.0000     2.73785E-03
 STRESS PERIOD TIME  86400.      1440.0      24.000      1.0000     2.73785E-03
         TOTAL TIME 1.55520E+06  25920.      432.00      18.000     4.92813E-02
1
1
                            STRESS PERIOD NO.   19, LENGTH =   1.000000    
                            -----------------------------------------------

                              NUMBER OF TIME STEPS =     1

                               MULTIPLIER FOR DELT =     1.000

                            INITIAL TIME STEP SIZE =   1.000000    

 WELL NO.  LAYER   ROW   COL   STRESS RATE         
 --------------------------------------------------
      1      3     22     39      -1500.    
      2      1     13     15      -4500.    
      3      1     25     26       375.0    

      3 WELLS

 REUSING NON-PARAMETER RIVER REACHES FROM LAST STRESS PERIOD

     49 RIVER REACHES

 REUSING SURF FROM LAST STRESS PERIOD



            EVAPOTRANSPIRATION RATE
 READING ON UNIT   22 WITH FORMAT: (50E15.6)           

 REUSING EXDP FROM LAST STRESS PERIOD



                           RECHARGE
 READING ON UNIT   19 WITH FORMAT: (50E15.6)           
 
 SOLVING FOR HEAD 

 NO OUTPUT CONTROL FOR STRESS PERIOD   19   TIME STEP    1
1
  VOLUMETRIC BUDGET FOR ENTIRE MODEL AT END OF TIME STEP    1, STRESS PERIOD  19
  ------------------------------------------------------------------------------

     CUMULATIVE VOLUMES      L**3       RATES FOR THIS TIME STEP      L**3/T
     ------------------                 ------------------------

           IN:                                      IN:
           ---                                      ---
             STORAGE =       88462.7266               STORAGE =        4554.5337
       CONSTANT HEAD =       12604.7529         CONSTANT HEAD =         677.4783
               WELLS =        7125.0000                 WELLS =         375.0000
       RIVER LEAKAGE =      114000.0000         RIVER LEAKAGE =        6000.0000
                  ET =           0.0000                    ET =           0.0000
            RECHARGE =      630799.9375              RECHARGE =       33199.9961

            TOTAL IN =      852992.3750              TOTAL IN =       44807.0078

          OUT:                                     OUT:
          ----                                     ----
             STORAGE =      743785.1250               STORAGE =       39074.7422
       CONSTANT HEAD =          10.0680         CONSTANT HEAD =           0.9969
               WELLS =      114000.0000                 WELLS =        6000.0000
       RIVER LEAKAGE =           0.0000         RIVER LEAKAGE =           0.0000
                  ET =        1341.6475                    ET =          70.6246
            RECHARGE =           0.0000              RECHARGE =           0.0000

           TOTAL OUT =      859136.8125             TOTAL OUT =       45146.3633

            IN - OUT =       -6144.4375              IN - OUT =        -339.3555

 PERCENT DISCREPANCY =          -0.72     PERCENT DISCREPANCY =          -0.75






         TIME SUMMARY AT END OF TIME STEP    1 IN STRESS PERIOD   19
                    SECONDS     MINUTES      HOURS       DAYS        YEARS
                    -----------------------------------------------------------
   TIME STEP LENGTH  86400.      1440.0      24.000      1.0000     2.73785E-03
 STRESS PERIOD TIME  86400.      1440.0      24.000      1.0000     2.73785E-03
         TOTAL TIME 1.64160E+06  27360.      456.00      19.000     5.20192E-02
1
1
                            STRESS PERIOD NO.   20, LENGTH =   1.000000    
                            -----------------------------------------------

                              NUMBER OF TIME STEPS =     1

                               MULTIPLIER FOR DELT =     1.000

                            INITIAL TIME STEP SIZE =   1.000000    

 WELL NO.  LAYER   ROW   COL   STRESS RATE         
 --------------------------------------------------
      1      3     22     39      -1500.    
      2      1     13     15      -4500.    
      3      1     25     26       375.0    

      3 WELLS

 REUSING NON-PARAMETER RIVER REACHES FROM LAST STRESS PERIOD

     49 RIVER REACHES

 REUSING SURF FROM LAST STRESS PERIOD



            EVAPOTRANSPIRATION RATE
 READING ON UNIT   22 WITH FORMAT: (50E15.6)           

 REUSING EXDP FROM LAST STRESS PERIOD



                           RECHARGE
 READING ON UNIT   19 WITH FORMAT: (50E15.6)           
 
 SOLVING FOR HEAD 

 NO OUTPUT CONTROL FOR STRESS PERIOD   20   TIME STEP    1
1
  VOLUMETRIC BUDGET FOR ENTIRE MODEL AT END OF TIME STEP    1, STRESS PERIOD  20
  ------------------------------------------------------------------------------

     CUMULATIVE VOLUMES      L**3       RATES FOR THIS TIME STEP      L**3/T
     ------------------                 ------------------------

           IN:                                      IN:
           ---                                      ---
             STORAGE =       93019.5078               STORAGE =        4556.7837
       CONSTANT HEAD =       13282.2246         CONSTANT HEAD =         677.4712
               WELLS =        7500.0000                 WELLS =         375.0000
       RIVER LEAKAGE =      120000.0000         RIVER LEAKAGE =        6000.0000
                  ET =           0.0000                    ET =           0.0000
            RECHARGE =      663999.9375              RECHARGE =       33199.9961

            TOTAL IN =      897801.6875              TOTAL IN =       44809.2500

          OUT:                                     OUT:
          ----                                     ----
             STORAGE =      782020.8750               STORAGE =       38235.7383
       CONSTANT HEAD =          11.1166         CONSTANT HEAD =           1.0485
               WELLS =      120000.0000                 WELLS =        6000.0000
       RIVER LEAKAGE =           0.0000         RIVER LEAKAGE =           0.0000
                  ET =        1412.2733                    ET =          70.6259
            RECHARGE =           0.0000              RECHARGE =           0.0000

           TOTAL OUT =      903444.2500             TOTAL OUT =       44307.4102

            IN - OUT =       -5642.5625              IN - OUT =         501.8398

 PERCENT DISCREPANCY =          -0.63     PERCENT DISCREPANCY =           1.13






         TIME SUMMARY AT END OF TIME STEP    1 IN STRESS PERIOD   20
                    SECONDS     MINUTES      HOURS       DAYS        YEARS
                    -----------------------------------------------------------
   TIME STEP LENGTH  86400.      1440.0      24.000      1.0000     2.73785E-03
 STRESS PERIOD TIME  86400.      1440.0      24.000      1.0000     2.73785E-03
         TOTAL TIME 1.72800E+06  28800.      480.00      20.000     5.47570E-02
1
1
                            STRESS PERIOD NO.   21, LENGTH =   1.000000    
                            -----------------------------------------------

                              NUMBER OF TIME STEPS =     1

                               MULTIPLIER FOR DELT =     1.000

                            INITIAL TIME STEP SIZE =   1.000000    

 WELL NO.  LAYER   ROW   COL   STRESS RATE         
 --------------------------------------------------
      1      3     22     39      -1500.    
      2      1     13     15      -4500.    
      3      1     25     26       375.0    

      3 WELLS

 REUSING NON-PARAMETER RIVER REACHES FROM LAST STRESS PERIOD

     49 RIVER REACHES

 REUSING SURF FROM LAST STRESS PERIOD



            EVAPOTRANSPIRATION RATE
 READING ON UNIT   22 WITH FORMAT: (50E15.6)           

 REUSING EXDP FROM LAST STRESS PERIOD



                           RECHARGE
 READING ON UNIT   19 WITH FORMAT: (50E15.6)           
 
 SOLVING FOR HEAD 

 NO OUTPUT CONTROL FOR STRESS PERIOD   21   TIME STEP    1
1
  VOLUMETRIC BUDGET FOR ENTIRE MODEL AT END OF TIME STEP    1, STRESS PERIOD  21
  ------------------------------------------------------------------------------

     CUMULATIVE VOLUMES      L**3       RATES FOR THIS TIME STEP      L**3/T
     ------------------                 ------------------------

           IN:                                      IN:
           ---                                      ---
             STORAGE =       97582.5391               STORAGE =        4563.0337
       CONSTANT HEAD =       13959.6885         CONSTANT HEAD =         677.4642
               WELLS =        7875.0000                 WELLS =         375.0000
       RIVER LEAKAGE =      126000.0000         RIVER LEAKAGE =        6000.0000
                  ET =           0.0000                    ET =           0.0000
            RECHARGE =      697199.9375              RECHARGE =       33199.9961

            TOTAL IN =      942617.1250              TOTAL IN =       44815.4922

          OUT:                                     OUT:
          ----                                     ----
             STORAGE =      820390.6250               STORAGE =       38369.7383
       CONSTANT HEAD =          12.2168         CONSTANT HEAD =           1.1002
               WELLS =      126000.0000                 WELLS =        6000.0000
       RIVER LEAKAGE =           0.0000         RIVER LEAKAGE =           0.0000
                  ET =        1482.9005                    ET =          70.6272
            RECHARGE =           0.0000              RECHARGE =           0.0000

           TOTAL OUT =      947885.6875             TOTAL OUT =       44441.4688

            IN - OUT =       -5268.5625              IN - OUT =         374.0234

 PERCENT DISCREPANCY =          -0.56     PERCENT DISCREPANCY =           0.84






         TIME SUMMARY AT END OF TIME STEP    1 IN STRESS PERIOD   21
                    SECONDS     MINUTES      HOURS       DAYS        YEARS
                    -----------------------------------------------------------
   TIME STEP LENGTH  86400.      1440.0      24.000      1.0000     2.73785E-03
 STRESS PERIOD TIME  86400.      1440.0      24.000      1.0000     2.73785E-03
         TOTAL TIME 1.81440E+06  30240.      504.00      21.000     5.74949E-02
1

 Run end date and time (yyyy/mm/dd hh:mm:ss): 2026/02/26 22:10:53
 Elapsed run time: 29.007 Seconds

